<?xml version="1.0" encoding="UTF-8"?>

<!-- generated on Monday 03 June 2019 05:22:38 PM IST by Eclipse SUMO netedit Version 1.2.0
<configuration xmlns:xsi="http://www.w3.org/2001/XMLSchema-instance" xsi:noNamespaceSchemaLocation="http://sumo.dlr.de/xsd/netconvertConfiguration.xsd">

    <output>
        <output-file value="/home/tara/codes/aco/aco.net.xml"/>
        <plain-output-prefix value="/home/tara/codes/aco/aco"/>
    </output>

    <processing>
        <offset.disable-normalization value="true"/>
    </processing>

    <junctions>
        <no-turnarounds value="true"/>
    </junctions>

</configuration>
-->

<tlLogics version="1.1" xmlns:xsi="http://www.w3.org/2001/XMLSchema-instance" xsi:noNamespaceSchemaLocation="http://sumo.dlr.de/xsd/tllogic_file.xsd">
</tlLogics>
