<?xml version="1.0" encoding="UTF-8"?>

<!-- generated on Monday 03 June 2019 05:22:38 PM IST by Eclipse SUMO netedit Version 1.2.0
<configuration xmlns:xsi="http://www.w3.org/2001/XMLSchema-instance" xsi:noNamespaceSchemaLocation="http://sumo.dlr.de/xsd/netconvertConfiguration.xsd">

    <output>
        <output-file value="/home/tara/codes/aco/aco.net.xml"/>
        <plain-output-prefix value="/home/tara/codes/aco/aco"/>
    </output>

    <processing>
        <offset.disable-normalization value="true"/>
    </processing>

    <junctions>
        <no-turnarounds value="true"/>
    </junctions>

</configuration>
-->

<edges version="1.1" xmlns:xsi="http://www.w3.org/2001/XMLSchema-instance" xsi:noNamespaceSchemaLocation="http://sumo.dlr.de/xsd/edges_file.xsd">
    <edge id="gneE0" from="gneJ0" to="gneJ1" priority="-1" numLanes="1" speed="13.89"/>
    <edge id="gneE1" from="gneJ1" to="gneJ2" priority="-1" numLanes="1" speed="13.89"/>
    <edge id="gneE10" from="gneJ8" to="gneJ9" priority="-1" numLanes="1" speed="13.89"/>
    <edge id="gneE11" from="gneJ9" to="gneJ10" priority="-1" numLanes="1" speed="13.89"/>
    <edge id="gneE12" from="gneJ10" to="gneJ11" priority="-1" numLanes="1" speed="13.89"/>
    <edge id="gneE13" from="gneJ11" to="gneJ12" priority="-1" numLanes="1" speed="13.89"/>
    <edge id="gneE2" from="gneJ2" to="gneJ3" priority="-1" numLanes="1" speed="13.89"/>
    <edge id="gneE3" from="gneJ3" to="gneJ4" priority="-1" numLanes="1" speed="13.89"/>
    <edge id="gneE4" from="gneJ4" to="gneJ1" priority="-1" numLanes="1" speed="13.89"/>
    <edge id="gneE5" from="gneJ1" to="gneJ5" priority="-1" numLanes="1" speed="13.89"/>
    <edge id="gneE6" from="gneJ5" to="gneJ6" priority="-1" numLanes="1" speed="13.89"/>
    <edge id="gneE7" from="gneJ6" to="gneJ4" priority="-1" numLanes="1" speed="13.89"/>
    <edge id="gneE8" from="gneJ4" to="gneJ7" priority="-1" numLanes="1" speed="13.89"/>
    <edge id="gneE9" from="gneJ7" to="gneJ8" priority="-1" numLanes="1" speed="13.89"/>
</edges>
