<?xml version="1.0" encoding="UTF-8"?>

<!-- generated on Monday 03 June 2019 05:22:32 PM IST by Eclipse SUMO netedit Version 1.2.0
<configuration xmlns:xsi="http://www.w3.org/2001/XMLSchema-instance" xsi:noNamespaceSchemaLocation="http://sumo.dlr.de/xsd/netconvertConfiguration.xsd">

    <output>
        <output-file value="/home/tara/codes/aco/aco.net.xml"/>
    </output>

    <processing>
        <offset.disable-normalization value="true"/>
    </processing>

    <junctions>
        <no-turnarounds value="true"/>
    </junctions>

</configuration>
-->

<net version="1.1" junctionCornerDetail="5" limitTurnSpeed="5.50" xmlns:xsi="http://www.w3.org/2001/XMLSchema-instance" xsi:noNamespaceSchemaLocation="http://sumo.dlr.de/xsd/net_file.xsd">

    <location netOffset="0.00,0.00" convBoundary="0.00,0.00,400.00,200.00" origBoundary="10000000000.00,10000000000.00,-10000000000.00,-10000000000.00" projParameter="!"/>

    <edge id=":gneJ1_0" function="internal">
        <lane id=":gneJ1_0_0" index="0" speed="6.51" length="9.03" shape="107.20,101.60 104.75,101.95 103.00,103.00 101.95,104.75 101.60,107.20"/>
    </edge>
    <edge id=":gneJ1_1" function="internal">
        <lane id=":gneJ1_1_0" index="0" speed="8.00" length="10.18" shape="107.20,101.60 103.35,101.05 100.60,99.40 99.01,96.75"/>
    </edge>
    <edge id=":gneJ1_4" function="internal">
        <lane id=":gneJ1_4_0" index="0" speed="8.00" length="4.01" shape="99.01,96.75 98.95,96.65 98.40,92.80"/>
    </edge>
    <edge id=":gneJ1_2" function="internal">
        <lane id=":gneJ1_2_0" index="0" speed="6.51" length="9.03" shape="92.80,98.40 95.25,98.05 97.00,97.00 98.05,95.25 98.40,92.80"/>
    </edge>
    <edge id=":gneJ1_3" function="internal">
        <lane id=":gneJ1_3_0" index="0" speed="8.00" length="10.18" shape="92.80,98.40 96.65,98.95 99.40,100.60 100.99,103.25"/>
    </edge>
    <edge id=":gneJ1_5" function="internal">
        <lane id=":gneJ1_5_0" index="0" speed="8.00" length="4.01" shape="100.99,103.25 101.05,103.35 101.60,107.20"/>
    </edge>
    <edge id=":gneJ10_0" function="internal">
        <lane id=":gneJ10_0_0" index="0" speed="13.89" length="0.10" shape="398.40,100.00 398.40,100.00"/>
    </edge>
    <edge id=":gneJ11_0" function="internal">
        <lane id=":gneJ11_0_0" index="0" speed="3.90" length="2.58" shape="398.40,3.20 398.30,2.50 398.00,2.00 397.50,1.70 396.80,1.60"/>
    </edge>
    <edge id=":gneJ2_0" function="internal">
        <lane id=":gneJ2_0_0" index="0" speed="3.90" length="2.58" shape="98.40,0.00 98.50,-0.70 98.80,-1.20 99.30,-1.50 100.00,-1.60"/>
    </edge>
    <edge id=":gneJ3_0" function="internal">
        <lane id=":gneJ3_0_0" index="0" speed="3.90" length="2.58" shape="200.00,-1.60 200.70,-1.50 201.20,-1.20 201.50,-0.70 201.60,0.00"/>
    </edge>
    <edge id=":gneJ4_0" function="internal">
        <lane id=":gneJ4_0_0" index="0" speed="6.51" length="9.03" shape="198.40,107.20 198.05,104.75 197.00,103.00 195.25,101.95 192.80,101.60"/>
    </edge>
    <edge id=":gneJ4_1" function="internal">
        <lane id=":gneJ4_1_0" index="0" speed="8.00" length="10.18" shape="198.40,107.20 198.95,103.35 200.60,100.60 203.25,99.01"/>
    </edge>
    <edge id=":gneJ4_4" function="internal">
        <lane id=":gneJ4_4_0" index="0" speed="8.00" length="4.01" shape="203.25,99.01 203.35,98.95 207.20,98.40"/>
    </edge>
    <edge id=":gneJ4_2" function="internal">
        <lane id=":gneJ4_2_0" index="0" speed="6.51" length="9.03" shape="201.60,92.80 201.95,95.25 203.00,97.00 204.75,98.05 207.20,98.40"/>
    </edge>
    <edge id=":gneJ4_3" function="internal">
        <lane id=":gneJ4_3_0" index="0" speed="8.00" length="10.18" shape="201.60,92.80 201.05,96.65 199.40,99.40 196.75,100.99"/>
    </edge>
    <edge id=":gneJ4_5" function="internal">
        <lane id=":gneJ4_5_0" index="0" speed="8.00" length="4.01" shape="196.75,100.99 196.65,101.05 192.80,101.60"/>
    </edge>
    <edge id=":gneJ5_0" function="internal">
        <lane id=":gneJ5_0_0" index="0" speed="3.90" length="2.58" shape="101.60,196.80 101.70,197.50 102.00,198.00 102.50,198.30 103.20,198.40"/>
    </edge>
    <edge id=":gneJ6_0" function="internal">
        <lane id=":gneJ6_0_0" index="0" speed="3.90" length="2.58" shape="196.80,198.40 197.50,198.30 198.00,198.00 198.30,197.50 198.40,196.80"/>
    </edge>
    <edge id=":gneJ7_0" function="internal">
        <lane id=":gneJ7_0_0" index="0" speed="3.90" length="2.58" shape="300.00,98.40 300.70,98.50 301.20,98.80 301.50,99.30 301.60,100.00"/>
    </edge>
    <edge id=":gneJ8_0" function="internal">
        <lane id=":gneJ8_0_0" index="0" speed="3.90" length="2.58" shape="301.60,196.80 301.70,197.50 302.00,198.00 302.50,198.30 303.20,198.40"/>
    </edge>
    <edge id=":gneJ9_0" function="internal">
        <lane id=":gneJ9_0_0" index="0" speed="3.90" length="2.58" shape="396.80,198.40 397.50,198.30 398.00,198.00 398.30,197.50 398.40,196.80"/>
    </edge>

    <edge id="gneE0" from="gneJ0" to="gneJ1" priority="-1">
        <lane id="gneE0_0" index="0" speed="13.89" length="92.80" shape="0.00,98.40 92.80,98.40"/>
    </edge>
    <edge id="gneE1" from="gneJ1" to="gneJ2" priority="-1">
        <lane id="gneE1_0" index="0" speed="13.89" length="92.80" shape="98.40,92.80 98.40,0.00"/>
    </edge>
    <edge id="gneE10" from="gneJ8" to="gneJ9" priority="-1">
        <lane id="gneE10_0" index="0" speed="13.89" length="93.60" shape="303.20,198.40 396.80,198.40"/>
    </edge>
    <edge id="gneE11" from="gneJ9" to="gneJ10" priority="-1">
        <lane id="gneE11_0" index="0" speed="13.89" length="96.80" shape="398.40,196.80 398.40,100.00"/>
    </edge>
    <edge id="gneE12" from="gneJ10" to="gneJ11" priority="-1">
        <lane id="gneE12_0" index="0" speed="13.89" length="96.80" shape="398.40,100.00 398.40,3.20"/>
    </edge>
    <edge id="gneE13" from="gneJ11" to="gneJ12" priority="-1">
        <lane id="gneE13_0" index="0" speed="13.89" length="96.80" shape="396.80,1.60 300.00,1.60"/>
    </edge>
    <edge id="gneE2" from="gneJ2" to="gneJ3" priority="-1">
        <lane id="gneE2_0" index="0" speed="13.89" length="100.00" shape="100.00,-1.60 200.00,-1.60"/>
    </edge>
    <edge id="gneE3" from="gneJ3" to="gneJ4" priority="-1">
        <lane id="gneE3_0" index="0" speed="13.89" length="92.80" shape="201.60,0.00 201.60,92.80"/>
    </edge>
    <edge id="gneE4" from="gneJ4" to="gneJ1" priority="-1">
        <lane id="gneE4_0" index="0" speed="13.89" length="85.60" shape="192.80,101.60 107.20,101.60"/>
    </edge>
    <edge id="gneE5" from="gneJ1" to="gneJ5" priority="-1">
        <lane id="gneE5_0" index="0" speed="13.89" length="89.60" shape="101.60,107.20 101.60,196.80"/>
    </edge>
    <edge id="gneE6" from="gneJ5" to="gneJ6" priority="-1">
        <lane id="gneE6_0" index="0" speed="13.89" length="93.60" shape="103.20,198.40 196.80,198.40"/>
    </edge>
    <edge id="gneE7" from="gneJ6" to="gneJ4" priority="-1">
        <lane id="gneE7_0" index="0" speed="13.89" length="89.60" shape="198.40,196.80 198.40,107.20"/>
    </edge>
    <edge id="gneE8" from="gneJ4" to="gneJ7" priority="-1">
        <lane id="gneE8_0" index="0" speed="13.89" length="92.80" shape="207.20,98.40 300.00,98.40"/>
    </edge>
    <edge id="gneE9" from="gneJ7" to="gneJ8" priority="-1">
        <lane id="gneE9_0" index="0" speed="13.89" length="96.80" shape="301.60,100.00 301.60,196.80"/>
    </edge>

    <junction id="gneJ0" type="dead_end" x="0.00" y="100.00" incLanes="" intLanes="" shape="0.00,100.00 0.00,96.80"/>
    <junction id="gneJ1" type="priority" x="100.00" y="100.00" incLanes="gneE4_0 gneE0_0" intLanes=":gneJ1_0_0 :gneJ1_4_0 :gneJ1_2_0 :gneJ1_5_0" shape="100.00,107.20 103.20,107.20 103.64,104.98 104.20,104.20 104.98,103.64 105.98,103.31 107.20,103.20 107.20,100.00 105.00,99.80 103.20,99.20 101.80,98.20 100.80,96.80 100.20,95.00 100.00,92.80 96.80,92.80 96.36,95.02 95.80,95.80 95.02,96.36 94.02,96.69 92.80,96.80 92.80,100.00 95.00,100.20 96.80,100.80 98.20,101.80 99.20,103.20 99.80,105.00">
        <request index="0" response="0000" foes="1000" cont="0"/>
        <request index="1" response="0100" foes="0100" cont="1"/>
        <request index="2" response="0000" foes="0010" cont="0"/>
        <request index="3" response="0001" foes="0001" cont="1"/>
    </junction>
    <junction id="gneJ10" type="priority" x="400.00" y="100.00" incLanes="gneE11_0" intLanes=":gneJ10_0_0" shape="396.80,100.00 400.00,100.00 396.80,100.00">
        <request index="0" response="0" foes="0" cont="0"/>
    </junction>
    <junction id="gneJ11" type="priority" x="400.00" y="0.00" incLanes="gneE12_0" intLanes=":gneJ11_0_0" shape="396.80,3.20 400.00,3.20 399.64,1.42 399.20,0.80 398.58,0.36 397.78,0.09 396.80,0.00">
        <request index="0" response="0" foes="0" cont="0"/>
    </junction>
    <junction id="gneJ12" type="dead_end" x="300.00" y="0.00" incLanes="gneE13_0" intLanes="" shape="300.00,3.20 300.00,0.00"/>
    <junction id="gneJ2" type="priority" x="100.00" y="0.00" incLanes="gneE1_0" intLanes=":gneJ2_0_0" shape="96.80,0.00 100.00,0.00 100.00,-3.20 98.22,-2.84 97.60,-2.40 97.16,-1.78 96.89,-0.98">
        <request index="0" response="0" foes="0" cont="0"/>
    </junction>
    <junction id="gneJ3" type="priority" x="200.00" y="0.00" incLanes="gneE2_0" intLanes=":gneJ3_0_0" shape="200.00,0.00 203.20,0.00 202.84,-1.78 202.40,-2.40 201.78,-2.84 200.98,-3.11 200.00,-3.20">
        <request index="0" response="0" foes="0" cont="0"/>
    </junction>
    <junction id="gneJ4" type="priority" x="200.00" y="100.00" incLanes="gneE7_0 gneE3_0" intLanes=":gneJ4_0_0 :gneJ4_4_0 :gneJ4_2_0 :gneJ4_5_0" shape="196.80,107.20 200.00,107.20 200.20,105.00 200.80,103.20 201.80,101.80 203.20,100.80 205.00,100.20 207.20,100.00 207.20,96.80 204.98,96.36 204.20,95.80 203.64,95.02 203.31,94.02 203.20,92.80 200.00,92.80 199.80,95.00 199.20,96.80 198.20,98.20 196.80,99.20 195.00,99.80 192.80,100.00 192.80,103.20 195.02,103.64 195.80,104.20 196.36,104.98 196.69,105.98">
        <request index="0" response="0000" foes="1000" cont="0"/>
        <request index="1" response="0100" foes="0100" cont="1"/>
        <request index="2" response="0000" foes="0010" cont="0"/>
        <request index="3" response="0001" foes="0001" cont="1"/>
    </junction>
    <junction id="gneJ5" type="priority" x="100.00" y="200.00" incLanes="gneE5_0" intLanes=":gneJ5_0_0" shape="103.20,200.00 103.20,196.80 100.00,196.80 100.36,198.58 100.80,199.20 101.42,199.64 102.22,199.91">
        <request index="0" response="0" foes="0" cont="0"/>
    </junction>
    <junction id="gneJ6" type="priority" x="200.00" y="200.00" incLanes="gneE6_0" intLanes=":gneJ6_0_0" shape="200.00,196.80 196.80,196.80 196.80,200.00 198.58,199.64 199.20,199.20 199.64,198.58 199.91,197.78">
        <request index="0" response="0" foes="0" cont="0"/>
    </junction>
    <junction id="gneJ7" type="priority" x="300.00" y="100.00" incLanes="gneE8_0" intLanes=":gneJ7_0_0" shape="300.00,100.00 303.20,100.00 302.84,98.22 302.40,97.60 301.78,97.16 300.98,96.89 300.00,96.80">
        <request index="0" response="0" foes="0" cont="0"/>
    </junction>
    <junction id="gneJ8" type="priority" x="300.00" y="200.00" incLanes="gneE9_0" intLanes=":gneJ8_0_0" shape="303.20,200.00 303.20,196.80 300.00,196.80 300.36,198.58 300.80,199.20 301.42,199.64 302.22,199.91">
        <request index="0" response="0" foes="0" cont="0"/>
    </junction>
    <junction id="gneJ9" type="priority" x="400.00" y="200.00" incLanes="gneE10_0" intLanes=":gneJ9_0_0" shape="400.00,196.80 396.80,196.80 396.80,200.00 398.58,199.64 399.20,199.20 399.64,198.58 399.91,197.78">
        <request index="0" response="0" foes="0" cont="0"/>
    </junction>

    <junction id=":gneJ1_4_0" type="internal" x="99.01" y="96.75" incLanes=":gneJ1_1_0 gneE0_0" intLanes=":gneJ1_2_0"/>
    <junction id=":gneJ1_5_0" type="internal" x="100.99" y="103.25" incLanes=":gneJ1_3_0 gneE4_0" intLanes=":gneJ1_0_0"/>
    <junction id=":gneJ4_4_0" type="internal" x="203.25" y="99.01" incLanes=":gneJ4_1_0 gneE3_0" intLanes=":gneJ4_2_0"/>
    <junction id=":gneJ4_5_0" type="internal" x="196.75" y="100.99" incLanes=":gneJ4_3_0 gneE7_0" intLanes=":gneJ4_0_0"/>

    <connection from="gneE0" to="gneE1" fromLane="0" toLane="0" via=":gneJ1_2_0" dir="r" state="M"/>
    <connection from="gneE0" to="gneE5" fromLane="0" toLane="0" via=":gneJ1_3_0" dir="l" state="m"/>
    <connection from="gneE1" to="gneE2" fromLane="0" toLane="0" via=":gneJ2_0_0" dir="l" state="M"/>
    <connection from="gneE10" to="gneE11" fromLane="0" toLane="0" via=":gneJ9_0_0" dir="r" state="M"/>
    <connection from="gneE11" to="gneE12" fromLane="0" toLane="0" via=":gneJ10_0_0" dir="s" state="M"/>
    <connection from="gneE12" to="gneE13" fromLane="0" toLane="0" via=":gneJ11_0_0" dir="r" state="M"/>
    <connection from="gneE2" to="gneE3" fromLane="0" toLane="0" via=":gneJ3_0_0" dir="l" state="M"/>
    <connection from="gneE3" to="gneE8" fromLane="0" toLane="0" via=":gneJ4_2_0" dir="r" state="M"/>
    <connection from="gneE3" to="gneE4" fromLane="0" toLane="0" via=":gneJ4_3_0" dir="l" state="m"/>
    <connection from="gneE4" to="gneE5" fromLane="0" toLane="0" via=":gneJ1_0_0" dir="r" state="M"/>
    <connection from="gneE4" to="gneE1" fromLane="0" toLane="0" via=":gneJ1_1_0" dir="l" state="m"/>
    <connection from="gneE5" to="gneE6" fromLane="0" toLane="0" via=":gneJ5_0_0" dir="r" state="M"/>
    <connection from="gneE6" to="gneE7" fromLane="0" toLane="0" via=":gneJ6_0_0" dir="r" state="M"/>
    <connection from="gneE7" to="gneE4" fromLane="0" toLane="0" via=":gneJ4_0_0" dir="r" state="M"/>
    <connection from="gneE7" to="gneE8" fromLane="0" toLane="0" via=":gneJ4_1_0" dir="l" state="m"/>
    <connection from="gneE8" to="gneE9" fromLane="0" toLane="0" via=":gneJ7_0_0" dir="l" state="M"/>
    <connection from="gneE9" to="gneE10" fromLane="0" toLane="0" via=":gneJ8_0_0" dir="r" state="M"/>

    <connection from=":gneJ1_0" to="gneE5" fromLane="0" toLane="0" dir="r" state="M"/>
    <connection from=":gneJ1_1" to="gneE1" fromLane="0" toLane="0" via=":gneJ1_4_0" dir="l" state="m"/>
    <connection from=":gneJ1_4" to="gneE1" fromLane="0" toLane="0" dir="l" state="M"/>
    <connection from=":gneJ1_2" to="gneE1" fromLane="0" toLane="0" dir="r" state="M"/>
    <connection from=":gneJ1_3" to="gneE5" fromLane="0" toLane="0" via=":gneJ1_5_0" dir="l" state="m"/>
    <connection from=":gneJ1_5" to="gneE5" fromLane="0" toLane="0" dir="l" state="M"/>
    <connection from=":gneJ10_0" to="gneE12" fromLane="0" toLane="0" dir="s" state="M"/>
    <connection from=":gneJ11_0" to="gneE13" fromLane="0" toLane="0" dir="r" state="M"/>
    <connection from=":gneJ2_0" to="gneE2" fromLane="0" toLane="0" dir="l" state="M"/>
    <connection from=":gneJ3_0" to="gneE3" fromLane="0" toLane="0" dir="l" state="M"/>
    <connection from=":gneJ4_0" to="gneE4" fromLane="0" toLane="0" dir="r" state="M"/>
    <connection from=":gneJ4_1" to="gneE8" fromLane="0" toLane="0" via=":gneJ4_4_0" dir="l" state="m"/>
    <connection from=":gneJ4_4" to="gneE8" fromLane="0" toLane="0" dir="l" state="M"/>
    <connection from=":gneJ4_2" to="gneE8" fromLane="0" toLane="0" dir="r" state="M"/>
    <connection from=":gneJ4_3" to="gneE4" fromLane="0" toLane="0" via=":gneJ4_5_0" dir="l" state="m"/>
    <connection from=":gneJ4_5" to="gneE4" fromLane="0" toLane="0" dir="l" state="M"/>
    <connection from=":gneJ5_0" to="gneE6" fromLane="0" toLane="0" dir="r" state="M"/>
    <connection from=":gneJ6_0" to="gneE7" fromLane="0" toLane="0" dir="r" state="M"/>
    <connection from=":gneJ7_0" to="gneE9" fromLane="0" toLane="0" dir="l" state="M"/>
    <connection from=":gneJ8_0" to="gneE10" fromLane="0" toLane="0" dir="r" state="M"/>
    <connection from=":gneJ9_0" to="gneE11" fromLane="0" toLane="0" dir="r" state="M"/>

</net>
