<?xml version="1.0" encoding="UTF-8"?>

<!-- generated on Saturday 22 June 2019 01:05:38 PM IST by Eclipse SUMO netedit Version 1.2.0
<configuration xmlns:xsi="http://www.w3.org/2001/XMLSchema-instance" xsi:noNamespaceSchemaLocation="http://sumo.dlr.de/xsd/netconvertConfiguration.xsd">

    <input>
        <sumo-net-file value="/home/tara/codes/aco/src/aco.net.xml"/>
    </input>

    <output>
        <output-file value="/home/tara/codes/aco/src/aco.net.xml"/>
    </output>

    <processing>
        <geometry.max-grade.fix value="false"/>
        <offset.disable-normalization value="true"/>
        <lefthand value="false"/>
    </processing>

    <junctions>
        <no-turnarounds value="true"/>
        <junctions.corner-detail value="5"/>
        <junctions.limit-turn-speed value="5.5"/>
        <rectangular-lane-cut value="false"/>
    </junctions>

    <pedestrian>
        <walkingareas value="false"/>
    </pedestrian>

    <netedit>
        <additional-files value="/home/tara/codes/aco/src/aco.original_add.xml"/>
    </netedit>

</configuration>
-->

<additional xmlns:xsi="http://www.w3.org/2001/XMLSchema-instance" xsi:noNamespaceSchemaLocation="http://sumo.dlr.de/xsd/additional_file.xsd">
    <parkingArea id="parkingArea_-gneE105_0_96" length="40" lane="-gneE105_0" friendlyPos="1" roadsideCapacity="5" startPos="67.28" endPos="107.28"/>
    <parkingArea id="parkingArea_-gneE106_0_102" length="40" lane="-gneE106_0" friendlyPos="1" roadsideCapacity="2" startPos="67.26" endPos="107.26"/>
    <parkingArea id="parkingArea_-gneE107_0_100" length="40" lane="-gneE107_0" friendlyPos="1" roadsideCapacity="3" startPos="69.13" endPos="109.13"/>
    <parkingArea id="parkingArea_-gneE108_0_105" length="40" lane="-gneE108_0" friendlyPos="1" roadsideCapacity="2" startPos="68.5" endPos="108.50"/>
    <parkingArea id="parkingArea_-gneE10_0_52" length="40" lane="-gneE10_0" friendlyPos="1" roadsideCapacity="4" startPos="14.35" endPos="54.35"/>
    <parkingArea id="parkingArea_-gneE111_0_108" length="80" lane="-gneE111_0" friendlyPos="1" roadsideCapacity="17" startPos="188.96" endPos="268.96"/>
    <parkingArea id="parkingArea_-gneE12_0_36" length="40" lane="-gneE12_0" friendlyPos="1" roadsideCapacity="3" startPos="12.86" endPos="52.86"/>
    <parkingArea id="parkingArea_-gneE13_0_38" length="40" lane="-gneE13_0" friendlyPos="1" roadsideCapacity="10" startPos="46.94" endPos="86.94"/>
    <parkingArea id="parkingArea_-gneE9_0_67" length="40" lane="-gneE9_0" friendlyPos="1" roadsideCapacity="6" startPos="45.42" endPos="85.42"/>
    <parkingArea id="parkingArea_gneE105_0_97" length="40" lane="gneE105_0" friendlyPos="1" roadsideCapacity="1" startPos="69.7" endPos="109.70"/>
    <parkingArea id="parkingArea_gneE107_0_101" length="40" lane="gneE107_0" friendlyPos="1" roadsideCapacity="5" startPos="69.86" endPos="109.86"/>
    <parkingArea id="parkingArea_gneE109_0_113" length="80" lane="gneE109_0" friendlyPos="1" roadsideCapacity="3" startPos="191.73" endPos="271.73"/>
    <parkingArea id="parkingArea_gneE111_0_109" length="80" lane="gneE111_0" friendlyPos="1" roadsideCapacity="17" startPos="189.54" endPos="269.54"/>
    <parkingArea id="parkingArea_gneE13_0_39" length="40" lane="gneE13_0" friendlyPos="1" roadsideCapacity="6" startPos="45.12" endPos="85.12"/>
    <parkingArea id="parkingArea_gneE24_0_100" length="40" lane="gneE24_0" friendlyPos="1" roadsideCapacity="4" startPos="40.02" endPos="80.02"/>
    <parkingArea id="parkingArea_gneE50_0_75" length="40" lane="gneE50_0" friendlyPos="1" roadsideCapacity="4" startPos="47.15" endPos="87.15"/>
    <parkingArea id="parkingArea_gneE51_0_73" length="40" lane="gneE51_0" friendlyPos="1" roadsideCapacity="5" startPos="12.99" endPos="52.99"/>
    <parkingArea id="parkingArea_gneE53_0_29" length="40" lane="gneE53_0" friendlyPos="1" roadsideCapacity="3" startPos="13.15" endPos="53.15"/>
    <parkingArea id="parkingArea_gneE54_0_21" length="40" lane="gneE54_0" friendlyPos="1" roadsideCapacity="3" startPos="45.32" endPos="85.32"/>
    <parkingArea id="parkingArea_gneE5_0_60" length="40" lane="gneE5_0" friendlyPos="1" roadsideCapacity="3" startPos="46.33" endPos="86.33"/>
    <parkingArea id="parkingArea_gneE9_0_53" length="40" lane="gneE9_0" friendlyPos="1" roadsideCapacity="7" startPos="45.14" endPos="85.14"/>
</additional>
