<?xml version="1.0" encoding="UTF-8"?>
<routes xmlns:xsi="http://www.w3.org/2001/XMLSchema-instance" xsi:noNamespaceSchemaLocation="http://sumo.dlr.de/xsd/routes_file.xsd">
  <vType accel="1.0" decel="5.0" id="Car" length="5.0" minGap="2.0" maxSpeed="100.0" sigma="0" />
  
  <!-- Left Flows -->
  <flow id="veh_left1" color="1,1,0" begin="0" end= "100" period="4" type="Car">
    <route edges="entryLeftE1" />
  </flow>

  <flow id="veh_left2" color="1,1,0" begin="0" end= "100" period="4" type="Car">
    <route edges="entryLeftE2" />
  </flow>

  <flow id="veh_left3" color="1,1,0" begin="0" end= "100" period="4" type="Car">
    <route edges="entryLeftE3" />
  </flow>

  <flow id="veh_left4" color="1,1,0" begin="0" end= "100" period="4" type="Car">
    <route edges="entryLeftE4" />
  </flow>

  <flow id="veh_left5" color="1,1,0" begin="0" end= "100" period="4" type="Car">
    <route edges="entryLeftE5" />
  </flow>

  <!-- Right flows -->
  <flow id="veh_right1" color="1,0,1" begin="0" end= "100" period="4" type="Car">
    <route edges="entryRightE1" />
  </flow>

  <flow id="veh_right2" color="1,0,1" begin="0" end= "100" period="4" type="Car">
    <route edges="entryRightE2" />
  </flow>

  <flow id="veh_right3" color="1,0,1" begin="0" end= "100" period="4" type="Car">
    <route edges="entryRightE3" />
  </flow>

  <flow id="veh_right4" color="1,0,1" begin="0" end= "100" period="4" type="Car">
    <route edges="entryRightE4" />
  </flow>

  <flow id="veh_right5" color="1,0,1" begin="0" end= "100" period="4" type="Car">
    <route edges="entryRightE5" />
  </flow>

  <!-- Up flows -->
  <flow id="veh_up1" color="1,0,0" begin="0" end= "100" period="4" type="Car">
    <route edges="entryUpE1" />
  </flow>

  <flow id="veh_up2" color="1,0,0" begin="0" end= "100" period="4" type="Car">
    <route edges="entryUpE2" />
  </flow>

  <flow id="veh_up3" color="1,0,0" begin="0" end= "100" period="4" type="Car">
    <route edges="entryUpE3" />
  </flow>

  <flow id="veh_up4" color="1,0,0" begin="0" end= "100" period="4" type="Car">
    <route edges="entryUpE4" />
  </flow>

  <flow id="veh_up5" color="1,0,0" begin="0" end= "100" period="4" type="Car">
    <route edges="entryUpE5" />
  </flow>

  <flow id="veh_up6" color="1,0,0" begin="0" end= "100" period="4" type="Car">
    <route edges="entryUpE6" />
  </flow>

  <flow id="veh_up7" color="1,0,0" begin="0" end= "100" period="4" type="Car">
    <route edges="entryUpE7" />
  </flow>

  <flow id="veh_up8" color="1,0,0" begin="0" end= "100" period="4" type="Car">
    <route edges="entryUpE8" />
  </flow>

  <!-- Down flows -->
  <flow id="veh_down1" color="0,1,1" begin="0" end= "100" period="4" type="Car">
    <route edges="entryDownE1" />
  </flow>

  <flow id="veh_down2" color="0,1,1" begin="0" end= "100" period="4" type="Car">
    <route edges="entryDownE2" />
  </flow>

  <flow id="veh_down3" color="0,1,1" begin="0" end= "100" period="4" type="Car">
    <route edges="entryDownE3" />
  </flow>

  <flow id="veh_down4" color="0,1,1" begin="0" end= "100" period="4" type="Car">
    <route edges="entryDownE4" />
  </flow>

  <flow id="veh_down5" color="0,1,1" begin="0" end= "100" period="4" type="Car">
    <route edges="entryDownE5" />
  </flow>

  <flow id="veh_down6" color="0,1,1" begin="0" end= "100" period="4" type="Car">
    <route edges="entryDownE6" />
  </flow>

  <flow id="veh_down7" color="0,1,1" begin="0" end= "100" period="4" type="Car">
    <route edges="entryDownE7" />
  </flow>

  <flow id="veh_down8" color="0,1,1" begin="0" end= "100" period="4" type="Car">
    <route edges="entryDownE8" />
  </flow>

</routes>
