<?xml version="1.0" encoding="UTF-8"?>

<!-- generated on Tuesday 11 June 2019 04:16:49 PM IST by Eclipse SUMO netedit Version 1.2.0
<configuration xmlns:xsi="http://www.w3.org/2001/XMLSchema-instance" xsi:noNamespaceSchemaLocation="http://sumo.dlr.de/xsd/netconvertConfiguration.xsd">

    <input>
        <sumo-net-file value="/home/tara/codes/aco/network/aco.net.xml"/>
    </input>

    <output>
        <output-file value="/home/tara/codes/aco/network/aco.net.xml"/>
    </output>

    <processing>
        <geometry.max-grade.fix value="false"/>
        <offset.disable-normalization value="true"/>
        <lefthand value="false"/>
    </processing>

    <junctions>
        <no-turnarounds value="true"/>
        <junctions.corner-detail value="5"/>
        <junctions.limit-turn-speed value="5.5"/>
        <rectangular-lane-cut value="false"/>
    </junctions>

    <pedestrian>
        <walkingareas value="false"/>
    </pedestrian>

</configuration>
-->

<net version="1.1" junctionCornerDetail="5" limitTurnSpeed="5.50" xmlns:xsi="http://www.w3.org/2001/XMLSchema-instance" xsi:noNamespaceSchemaLocation="http://sumo.dlr.de/xsd/net_file.xsd">

    <location netOffset="0.00,0.00" convBoundary="-600.00,-100.00,300.00,300.00" origBoundary="-10000000000.00,-10000000000.00,10000000000.00,10000000000.00" projParameter="!"/>

    <edge id=":gneJ0_0" function="internal">
        <lane id=":gneJ0_0_0" index="0" speed="10.36" length="24.51" shape="-489.60,304.80 -496.25,303.85 -501.00,301.00 -503.85,296.25 -504.80,289.60"/>
    </edge>
    <edge id=":gneJ0_1" function="internal">
        <lane id=":gneJ0_1_0" index="0" speed="9.26" length="19.35" shape="-489.60,301.60 -494.85,300.85 -498.60,298.60 -500.85,294.85 -501.60,289.60"/>
    </edge>
    <edge id=":gneJ0_2" function="internal">
        <lane id=":gneJ0_2_0" index="0" speed="6.51" length="9.03" shape="-495.20,289.60 -494.85,292.05 -493.80,293.80 -492.05,294.85 -489.60,295.20"/>
    </edge>
    <edge id=":gneJ0_3" function="internal">
        <lane id=":gneJ0_3_0" index="0" speed="8.00" length="14.19" shape="-498.40,289.60 -497.85,293.45 -496.20,296.20 -493.45,297.85 -489.60,298.40"/>
    </edge>
    <edge id=":gneJ0_4" function="internal">
        <lane id=":gneJ0_4_0" index="0" speed="7.33" length="11.73" shape="-510.40,298.40 -507.95,297.85 -506.20,296.20 -505.15,293.45 -504.80,289.60"/>
    </edge>
    <edge id=":gneJ0_5" function="internal">
        <lane id=":gneJ0_5_0" index="0" speed="13.89" length="20.80" shape="-510.40,298.40 -489.60,298.40"/>
    </edge>
    <edge id=":gneJ1_0" function="internal">
        <lane id=":gneJ1_0_0" index="0" speed="13.89" length="20.80" shape="-389.60,304.80 -410.40,304.80"/>
        <lane id=":gneJ1_0_1" index="1" speed="13.89" length="20.80" shape="-389.60,301.60 -410.40,301.60"/>
    </edge>
    <edge id=":gneJ1_2" function="internal">
        <lane id=":gneJ1_2_0" index="0" speed="9.26" length="6.96" shape="-389.60,301.60 -394.85,300.85 -396.27,300.00"/>
    </edge>
    <edge id=":gneJ1_8" function="internal">
        <lane id=":gneJ1_8_0" index="0" speed="9.26" length="12.40" shape="-396.27,300.00 -398.60,298.60 -400.85,294.85 -401.60,289.60"/>
    </edge>
    <edge id=":gneJ1_3" function="internal">
        <lane id=":gneJ1_3_0" index="0" speed="6.51" length="9.03" shape="-395.20,289.60 -394.85,292.05 -393.80,293.80 -392.05,294.85 -389.60,295.20"/>
    </edge>
    <edge id=":gneJ1_4" function="internal">
        <lane id=":gneJ1_4_0" index="0" speed="9.26" length="19.35" shape="-398.40,289.60 -399.15,294.85 -401.40,298.60 -405.15,300.85 -410.40,301.60"/>
    </edge>
    <edge id=":gneJ1_5" function="internal">
        <lane id=":gneJ1_5_0" index="0" speed="6.51" length="9.03" shape="-410.40,295.20 -407.95,294.85 -406.20,293.80 -405.15,292.05 -404.80,289.60"/>
    </edge>
    <edge id=":gneJ1_6" function="internal">
        <lane id=":gneJ1_6_0" index="0" speed="13.89" length="20.80" shape="-410.40,295.20 -389.60,295.20"/>
        <lane id=":gneJ1_6_1" index="1" speed="13.89" length="20.80" shape="-410.40,298.40 -389.60,298.40"/>
    </edge>
    <edge id=":gneJ10_0" function="internal">
        <lane id=":gneJ10_0_0" index="0" speed="6.51" length="9.03" shape="-4.80,210.40 -5.15,207.95 -6.20,206.20 -7.95,205.15 -10.40,204.80"/>
    </edge>
    <edge id=":gneJ10_1" function="internal">
        <lane id=":gneJ10_1_0" index="0" speed="9.26" length="19.35" shape="-1.60,210.40 -0.85,205.15 1.40,201.40 5.15,199.15 10.40,198.40"/>
    </edge>
    <edge id=":gneJ10_2" function="internal">
        <lane id=":gneJ10_2_0" index="0" speed="6.51" length="9.03" shape="10.40,204.80 7.95,205.15 6.20,206.20 5.15,207.95 4.80,210.40"/>
    </edge>
    <edge id=":gneJ10_3" function="internal">
        <lane id=":gneJ10_3_0" index="0" speed="13.89" length="20.80" shape="10.40,204.80 -10.40,204.80"/>
        <lane id=":gneJ10_3_1" index="1" speed="13.89" length="20.80" shape="10.40,201.60 -10.40,201.60"/>
    </edge>
    <edge id=":gneJ10_5" function="internal">
        <lane id=":gneJ10_5_0" index="0" speed="13.89" length="20.80" shape="-10.40,195.20 10.40,195.20"/>
        <lane id=":gneJ10_5_1" index="1" speed="13.89" length="20.80" shape="-10.40,198.40 10.40,198.40"/>
    </edge>
    <edge id=":gneJ10_7" function="internal">
        <lane id=":gneJ10_7_0" index="0" speed="9.26" length="6.96" shape="-10.40,198.40 -5.15,199.15 -3.73,200.00"/>
    </edge>
    <edge id=":gneJ10_8" function="internal">
        <lane id=":gneJ10_8_0" index="0" speed="9.26" length="12.40" shape="-3.73,200.00 -1.40,201.40 0.85,205.15 1.60,210.40"/>
    </edge>
    <edge id=":gneJ11_0" function="internal">
        <lane id=":gneJ11_0_0" index="0" speed="13.89" length="54.97" shape="-104.80,210.40 -102.02,203.41 -93.68,196.30 -79.77,189.06 -60.31,181.71"/>
    </edge>
    <edge id=":gneJ11_1" function="internal">
        <lane id=":gneJ11_1_0" index="0" speed="13.89" length="51.11" shape="-101.60,210.40 -98.96,204.46 -91.02,198.21 -77.80,191.64 -59.30,184.75"/>
    </edge>
    <edge id=":gneJ11_2" function="internal">
        <lane id=":gneJ11_2_0" index="0" speed="13.89" length="7.86" shape="-101.60,210.40 -98.79,205.15 -97.05,204.38"/>
    </edge>
    <edge id=":gneJ11_8" function="internal">
        <lane id=":gneJ11_8_0" index="0" speed="13.89" length="41.31" shape="-97.05,204.38 -90.34,201.40 -76.27,199.15 -56.56,198.40"/>
    </edge>
    <edge id=":gneJ11_3" function="internal">
        <lane id=":gneJ11_3_0" index="0" speed="13.12" length="39.92" shape="-56.56,204.80 -73.47,205.15 -85.54,206.20 -92.79,207.95 -95.20,210.40"/>
    </edge>
    <edge id=":gneJ11_4" function="internal">
        <lane id=":gneJ11_4_0" index="0" speed="7.43" length="23.65" shape="-56.56,201.60 -62.26,199.39 -64.86,194.30 -64.00,188.64 -59.30,184.75"/>
    </edge>
    <edge id=":gneJ11_5" function="internal">
        <lane id=":gneJ11_5_0" index="0" speed="5.98" length="14.58" shape="-57.27,190.82 -62.16,192.73 -63.67,194.10 -61.80,194.93 -56.56,195.20"/>
    </edge>
    <edge id=":gneJ11_6" function="internal">
        <lane id=":gneJ11_6_0" index="0" speed="13.89" length="43.53" shape="-57.27,190.82 -73.87,196.78 -85.72,202.03 -92.83,206.57 -95.20,210.40"/>
    </edge>
    <edge id=":gneJ11_7" function="internal">
        <lane id=":gneJ11_7_0" index="0" speed="13.89" length="47.30" shape="-58.28,187.78 -75.84,194.21 -88.37,200.12 -95.89,205.52 -98.40,210.40"/>
    </edge>
    <edge id=":gneJ12_0" function="internal">
        <lane id=":gneJ12_0_0" index="0" speed="13.12" length="39.92" shape="-204.80,210.40 -207.21,207.95 -214.46,206.20 -226.53,205.15 -243.44,204.80"/>
    </edge>
    <edge id=":gneJ12_1" function="internal">
        <lane id=":gneJ12_1_0" index="0" speed="13.89" length="43.53" shape="-204.80,210.40 -207.17,206.57 -214.28,202.03 -226.13,196.78 -242.73,190.82"/>
    </edge>
    <edge id=":gneJ12_2" function="internal">
        <lane id=":gneJ12_2_0" index="0" speed="13.89" length="47.30" shape="-201.60,210.40 -204.11,205.52 -211.63,200.12 -224.16,194.21 -241.72,187.78"/>
    </edge>
    <edge id=":gneJ12_3" function="internal">
        <lane id=":gneJ12_3_0" index="0" speed="13.89" length="54.97" shape="-239.69,181.71 -220.23,189.06 -206.32,196.30 -197.98,203.41 -195.20,210.40"/>
    </edge>
    <edge id=":gneJ12_4" function="internal">
        <lane id=":gneJ12_4_0" index="0" speed="13.89" length="51.11" shape="-240.70,184.75 -222.20,191.64 -208.98,198.21 -201.04,204.46 -198.40,210.40"/>
    </edge>
    <edge id=":gneJ12_5" function="internal">
        <lane id=":gneJ12_5_0" index="0" speed="7.43" length="4.78" shape="-240.70,184.75 -237.02,187.80"/>
    </edge>
    <edge id=":gneJ12_8" function="internal">
        <lane id=":gneJ12_8_0" index="0" speed="7.43" length="18.88" shape="-237.02,187.80 -236.00,188.64 -235.14,194.30 -237.74,199.39 -243.44,201.60"/>
    </edge>
    <edge id=":gneJ12_6" function="internal">
        <lane id=":gneJ12_6_0" index="0" speed="5.98" length="14.58" shape="-243.44,195.20 -238.20,194.93 -236.33,194.10 -237.84,192.73 -242.73,190.82"/>
    </edge>
    <edge id=":gneJ12_7" function="internal">
        <lane id=":gneJ12_7_0" index="0" speed="13.89" length="49.17" shape="-243.44,198.40 -223.73,199.15 -209.66,201.40 -201.21,205.15 -198.40,210.40"/>
    </edge>
    <edge id=":gneJ13_0" function="internal">
        <lane id=":gneJ13_0_0" index="0" speed="6.51" length="9.03" shape="-304.80,210.40 -305.15,207.95 -306.20,206.20 -307.95,205.15 -310.40,204.80"/>
    </edge>
    <edge id=":gneJ13_1" function="internal">
        <lane id=":gneJ13_1_0" index="0" speed="9.26" length="19.35" shape="-301.60,210.40 -300.85,205.15 -298.60,201.40 -294.85,199.15 -289.60,198.40"/>
    </edge>
    <edge id=":gneJ13_2" function="internal">
        <lane id=":gneJ13_2_0" index="0" speed="6.51" length="9.03" shape="-289.60,204.80 -292.05,205.15 -293.80,206.20 -294.85,207.95 -295.20,210.40"/>
    </edge>
    <edge id=":gneJ13_3" function="internal">
        <lane id=":gneJ13_3_0" index="0" speed="13.89" length="20.80" shape="-289.60,204.80 -310.40,204.80"/>
        <lane id=":gneJ13_3_1" index="1" speed="13.89" length="20.80" shape="-289.60,201.60 -310.40,201.60"/>
    </edge>
    <edge id=":gneJ13_5" function="internal">
        <lane id=":gneJ13_5_0" index="0" speed="13.89" length="20.80" shape="-310.40,195.20 -289.60,195.20"/>
        <lane id=":gneJ13_5_1" index="1" speed="13.89" length="20.80" shape="-310.40,198.40 -289.60,198.40"/>
    </edge>
    <edge id=":gneJ13_7" function="internal">
        <lane id=":gneJ13_7_0" index="0" speed="9.26" length="6.96" shape="-310.40,198.40 -305.15,199.15 -303.73,200.00"/>
    </edge>
    <edge id=":gneJ13_8" function="internal">
        <lane id=":gneJ13_8_0" index="0" speed="9.26" length="12.40" shape="-303.73,200.00 -301.40,201.40 -299.15,205.15 -298.40,210.40"/>
    </edge>
    <edge id=":gneJ14_0" function="internal">
        <lane id=":gneJ14_0_0" index="0" speed="6.51" length="9.03" shape="-404.80,210.40 -405.15,207.95 -406.20,206.20 -407.95,205.15 -410.40,204.80"/>
    </edge>
    <edge id=":gneJ14_1" function="internal">
        <lane id=":gneJ14_1_0" index="0" speed="9.26" length="19.35" shape="-401.60,210.40 -400.85,205.15 -398.60,201.40 -394.85,199.15 -389.60,198.40"/>
    </edge>
    <edge id=":gneJ14_2" function="internal">
        <lane id=":gneJ14_2_0" index="0" speed="6.51" length="9.03" shape="-389.60,204.80 -392.05,205.15 -393.80,206.20 -394.85,207.95 -395.20,210.40"/>
    </edge>
    <edge id=":gneJ14_3" function="internal">
        <lane id=":gneJ14_3_0" index="0" speed="13.89" length="20.80" shape="-389.60,204.80 -410.40,204.80"/>
        <lane id=":gneJ14_3_1" index="1" speed="13.89" length="20.80" shape="-389.60,201.60 -410.40,201.60"/>
    </edge>
    <edge id=":gneJ14_5" function="internal">
        <lane id=":gneJ14_5_0" index="0" speed="13.89" length="20.80" shape="-410.40,195.20 -389.60,195.20"/>
        <lane id=":gneJ14_5_1" index="1" speed="13.89" length="20.80" shape="-410.40,198.40 -389.60,198.40"/>
    </edge>
    <edge id=":gneJ14_7" function="internal">
        <lane id=":gneJ14_7_0" index="0" speed="9.26" length="6.96" shape="-410.40,198.40 -405.15,199.15 -403.73,200.00"/>
    </edge>
    <edge id=":gneJ14_8" function="internal">
        <lane id=":gneJ14_8_0" index="0" speed="9.26" length="12.40" shape="-403.73,200.00 -401.40,201.40 -399.15,205.15 -398.40,210.40"/>
    </edge>
    <edge id=":gneJ15_0" function="internal">
        <lane id=":gneJ15_0_0" index="0" speed="13.89" length="20.80" shape="-504.80,210.40 -504.80,189.60"/>
        <lane id=":gneJ15_0_1" index="1" speed="13.89" length="20.80" shape="-501.60,210.40 -501.60,189.60"/>
    </edge>
    <edge id=":gneJ15_2" function="internal">
        <lane id=":gneJ15_2_0" index="0" speed="9.26" length="6.96" shape="-501.60,210.40 -500.85,205.15 -500.00,203.73"/>
    </edge>
    <edge id=":gneJ15_8" function="internal">
        <lane id=":gneJ15_8_0" index="0" speed="9.26" length="12.40" shape="-500.00,203.73 -498.60,201.40 -494.85,199.15 -489.60,198.40"/>
    </edge>
    <edge id=":gneJ15_3" function="internal">
        <lane id=":gneJ15_3_0" index="0" speed="6.51" length="9.03" shape="-489.60,204.80 -492.05,205.15 -493.80,206.20 -494.85,207.95 -495.20,210.40"/>
    </edge>
    <edge id=":gneJ15_4" function="internal">
        <lane id=":gneJ15_4_0" index="0" speed="9.26" length="19.35" shape="-489.60,201.60 -494.85,200.85 -498.60,198.60 -500.85,194.85 -501.60,189.60"/>
    </edge>
    <edge id=":gneJ15_5" function="internal">
        <lane id=":gneJ15_5_0" index="0" speed="6.51" length="9.03" shape="-495.20,189.60 -494.85,192.05 -493.80,193.80 -492.05,194.85 -489.60,195.20"/>
    </edge>
    <edge id=":gneJ15_6" function="internal">
        <lane id=":gneJ15_6_0" index="0" speed="13.89" length="20.80" shape="-495.20,189.60 -495.20,210.40"/>
        <lane id=":gneJ15_6_1" index="1" speed="13.89" length="20.80" shape="-498.40,189.60 -498.40,210.40"/>
    </edge>
    <edge id=":gneJ2_0" function="internal">
        <lane id=":gneJ2_0_0" index="0" speed="13.89" length="20.80" shape="-289.60,304.80 -310.40,304.80"/>
        <lane id=":gneJ2_0_1" index="1" speed="13.89" length="20.80" shape="-289.60,301.60 -310.40,301.60"/>
    </edge>
    <edge id=":gneJ2_2" function="internal">
        <lane id=":gneJ2_2_0" index="0" speed="9.26" length="6.96" shape="-289.60,301.60 -294.85,300.85 -296.27,300.00"/>
    </edge>
    <edge id=":gneJ2_8" function="internal">
        <lane id=":gneJ2_8_0" index="0" speed="9.26" length="12.40" shape="-296.27,300.00 -298.60,298.60 -300.85,294.85 -301.60,289.60"/>
    </edge>
    <edge id=":gneJ2_3" function="internal">
        <lane id=":gneJ2_3_0" index="0" speed="6.51" length="9.03" shape="-295.20,289.60 -294.85,292.05 -293.80,293.80 -292.05,294.85 -289.60,295.20"/>
    </edge>
    <edge id=":gneJ2_4" function="internal">
        <lane id=":gneJ2_4_0" index="0" speed="9.26" length="19.35" shape="-298.40,289.60 -299.15,294.85 -301.40,298.60 -305.15,300.85 -310.40,301.60"/>
    </edge>
    <edge id=":gneJ2_5" function="internal">
        <lane id=":gneJ2_5_0" index="0" speed="6.51" length="9.03" shape="-310.40,295.20 -307.95,294.85 -306.20,293.80 -305.15,292.05 -304.80,289.60"/>
    </edge>
    <edge id=":gneJ2_6" function="internal">
        <lane id=":gneJ2_6_0" index="0" speed="13.89" length="20.80" shape="-310.40,295.20 -289.60,295.20"/>
        <lane id=":gneJ2_6_1" index="1" speed="13.89" length="20.80" shape="-310.40,298.40 -289.60,298.40"/>
    </edge>
    <edge id=":gneJ22_0" function="internal">
        <lane id=":gneJ22_0_0" index="0" speed="13.89" length="54.97" shape="-195.20,-10.40 -197.98,-3.41 -206.32,3.70 -220.23,10.94 -239.69,18.29"/>
    </edge>
    <edge id=":gneJ22_1" function="internal">
        <lane id=":gneJ22_1_0" index="0" speed="13.89" length="51.11" shape="-198.40,-10.40 -201.04,-4.46 -208.98,1.79 -222.20,8.36 -240.70,15.25"/>
    </edge>
    <edge id=":gneJ22_2" function="internal">
        <lane id=":gneJ22_2_0" index="0" speed="13.89" length="7.86" shape="-198.40,-10.40 -201.21,-5.15 -202.95,-4.38"/>
    </edge>
    <edge id=":gneJ22_8" function="internal">
        <lane id=":gneJ22_8_0" index="0" speed="13.89" length="41.31" shape="-202.95,-4.38 -209.66,-1.40 -223.73,0.85 -243.44,1.60"/>
    </edge>
    <edge id=":gneJ22_3" function="internal">
        <lane id=":gneJ22_3_0" index="0" speed="13.12" length="39.92" shape="-243.44,-4.80 -226.53,-5.15 -214.46,-6.20 -207.21,-7.95 -204.80,-10.40"/>
    </edge>
    <edge id=":gneJ22_4" function="internal">
        <lane id=":gneJ22_4_0" index="0" speed="7.43" length="23.65" shape="-243.44,-1.60 -237.74,0.61 -235.14,5.70 -236.00,11.36 -240.70,15.25"/>
    </edge>
    <edge id=":gneJ22_5" function="internal">
        <lane id=":gneJ22_5_0" index="0" speed="5.98" length="14.58" shape="-242.73,9.18 -237.84,7.27 -236.33,5.90 -238.20,5.07 -243.44,4.80"/>
    </edge>
    <edge id=":gneJ22_6" function="internal">
        <lane id=":gneJ22_6_0" index="0" speed="13.89" length="43.53" shape="-242.73,9.18 -226.13,3.22 -214.28,-2.03 -207.17,-6.57 -204.80,-10.40"/>
    </edge>
    <edge id=":gneJ22_7" function="internal">
        <lane id=":gneJ22_7_0" index="0" speed="13.89" length="47.30" shape="-241.72,12.22 -224.16,5.79 -211.63,-0.12 -204.11,-5.52 -201.60,-10.40"/>
    </edge>
    <edge id=":gneJ23_0" function="internal">
        <lane id=":gneJ23_0_0" index="0" speed="13.89" length="20.80" shape="-504.80,10.40 -504.80,-10.40"/>
        <lane id=":gneJ23_0_1" index="1" speed="13.89" length="20.80" shape="-501.60,10.40 -501.60,-10.40"/>
    </edge>
    <edge id=":gneJ23_2" function="internal">
        <lane id=":gneJ23_2_0" index="0" speed="9.26" length="6.96" shape="-501.60,10.40 -500.85,5.15 -500.00,3.73"/>
    </edge>
    <edge id=":gneJ23_8" function="internal">
        <lane id=":gneJ23_8_0" index="0" speed="9.26" length="12.40" shape="-500.00,3.73 -498.60,1.40 -494.85,-0.85 -489.60,-1.60"/>
    </edge>
    <edge id=":gneJ23_3" function="internal">
        <lane id=":gneJ23_3_0" index="0" speed="6.51" length="9.03" shape="-489.60,4.80 -492.05,5.15 -493.80,6.20 -494.85,7.95 -495.20,10.40"/>
    </edge>
    <edge id=":gneJ23_4" function="internal">
        <lane id=":gneJ23_4_0" index="0" speed="9.26" length="19.35" shape="-489.60,1.60 -494.85,0.85 -498.60,-1.40 -500.85,-5.15 -501.60,-10.40"/>
    </edge>
    <edge id=":gneJ23_5" function="internal">
        <lane id=":gneJ23_5_0" index="0" speed="6.51" length="9.03" shape="-495.20,-10.40 -494.85,-7.95 -493.80,-6.20 -492.05,-5.15 -489.60,-4.80"/>
    </edge>
    <edge id=":gneJ23_6" function="internal">
        <lane id=":gneJ23_6_0" index="0" speed="13.89" length="20.80" shape="-495.20,-10.40 -495.20,10.40"/>
        <lane id=":gneJ23_6_1" index="1" speed="13.89" length="20.80" shape="-498.40,-10.40 -498.40,10.40"/>
    </edge>
    <edge id=":gneJ24_0" function="internal">
        <lane id=":gneJ24_0_0" index="0" speed="13.89" length="25.76" shape="-504.80,112.88 -504.80,87.12"/>
        <lane id=":gneJ24_0_1" index="1" speed="13.89" length="25.76" shape="-501.60,112.88 -501.60,87.12"/>
    </edge>
    <edge id=":gneJ24_2" function="internal">
        <lane id=":gneJ24_2_0" index="0" speed="13.89" length="5.49" shape="-501.60,112.88 -500.00,107.63"/>
    </edge>
    <edge id=":gneJ24_3" function="internal">
        <lane id=":gneJ24_3_0" index="0" speed="13.89" length="3.94" shape="-501.60,112.88 -500.00,109.28"/>
    </edge>
    <edge id=":gneJ24_4" function="internal">
        <lane id=":gneJ24_4_0" index="0" speed="12.92" length="3.33" shape="-501.60,112.88 -500.00,109.96"/>
    </edge>
    <edge id=":gneJ24_25" function="internal">
        <lane id=":gneJ24_25_0" index="0" speed="13.89" length="48.89" shape="-500.00,107.63 -499.02,104.40 -491.28,96.38 -478.37,88.82 -460.31,81.71"/>
    </edge>
    <edge id=":gneJ24_26" function="internal">
        <lane id=":gneJ24_26_0" index="0" speed="13.89" length="46.63" shape="-500.00,109.28 -498.79,106.54 -490.34,102.02 -476.27,99.30 -456.56,98.40"/>
    </edge>
    <edge id=":gneJ24_27" function="internal">
        <lane id=":gneJ24_27_0" index="0" speed="12.92" length="44.84" shape="-500.00,109.96 -498.04,106.40 -488.50,104.98 -474.68,107.34 -458.28,112.22"/>
    </edge>
    <edge id=":gneJ24_5" function="internal">
        <lane id=":gneJ24_5_0" index="0" speed="11.31" length="36.65" shape="-460.31,118.29 -475.57,113.59 -486.48,111.12 -493.02,110.89 -495.20,112.88"/>
    </edge>
    <edge id=":gneJ24_6" function="internal">
        <lane id=":gneJ24_6_0" index="0" speed="13.89" length="56.78" shape="-460.31,118.29 -479.77,110.78 -493.68,103.08 -502.02,95.20 -504.80,87.12"/>
    </edge>
    <edge id=":gneJ24_7" function="internal">
        <lane id=":gneJ24_7_0" index="0" speed="13.89" length="52.88" shape="-459.30,115.25 -477.80,108.21 -491.02,101.17 -498.96,94.14 -501.60,87.12"/>
    </edge>
    <edge id=":gneJ24_8" function="internal">
        <lane id=":gneJ24_8_0" index="0" speed="11.99" length="56.63" shape="-459.30,115.25 -476.46,107.63 -482.18,100.00 -476.46,92.37 -459.30,84.75"/>
    </edge>
    <edge id=":gneJ24_9" function="internal">
        <lane id=":gneJ24_9_0" index="0" speed="7.43" length="23.65" shape="-459.30,115.25 -464.00,111.36 -464.86,105.70 -462.26,100.61 -456.56,98.40"/>
    </edge>
    <edge id=":gneJ24_10" function="internal">
        <lane id=":gneJ24_10_0" index="0" speed="5.98" length="14.58" shape="-456.56,104.80 -461.80,105.07 -463.67,105.90 -462.16,107.27 -457.27,109.18"/>
    </edge>
    <edge id=":gneJ24_11" function="internal">
        <lane id=":gneJ24_11_0" index="0" speed="13.30" length="41.03" shape="-456.56,104.80 -473.47,105.30 -485.54,106.82 -492.79,109.34 -495.20,112.88"/>
    </edge>
    <edge id=":gneJ24_12" function="internal">
        <lane id=":gneJ24_12_0" index="0" speed="13.89" length="45.75" shape="-456.56,101.60 -474.87,102.30 -487.94,104.42 -495.79,107.94 -498.40,112.88"/>
    </edge>
    <edge id=":gneJ24_13" function="internal">
        <lane id=":gneJ24_13_0" index="0" speed="13.89" length="50.57" shape="-456.56,101.60 -476.27,100.70 -490.34,97.98 -498.79,93.46 -501.60,87.12"/>
    </edge>
    <edge id=":gneJ24_14" function="internal">
        <lane id=":gneJ24_14_0" index="0" speed="7.43" length="23.65" shape="-456.56,101.60 -462.26,99.39 -464.86,94.30 -464.00,88.64 -459.30,84.75"/>
    </edge>
    <edge id=":gneJ24_15" function="internal">
        <lane id=":gneJ24_15_0" index="0" speed="5.98" length="14.58" shape="-457.27,90.82 -462.16,92.73 -463.67,94.10 -461.80,94.93 -456.56,95.20"/>
    </edge>
    <edge id=":gneJ24_16" function="internal">
        <lane id=":gneJ24_16_0" index="0" speed="9.39" length="34.09" shape="-457.27,90.82 -467.60,95.41 -471.05,100.00 -467.60,104.59 -457.27,109.18"/>
    </edge>
    <edge id=":gneJ24_17" function="internal">
        <lane id=":gneJ24_17_0" index="0" speed="13.89" length="45.18" shape="-457.27,90.82 -473.87,96.94 -485.72,102.65 -492.83,107.97 -495.20,112.88"/>
    </edge>
    <edge id=":gneJ24_18" function="internal">
        <lane id=":gneJ24_18_0" index="0" speed="13.89" length="49.01" shape="-458.28,87.78 -475.84,94.36 -488.37,100.74 -495.89,106.91 -498.40,112.88"/>
    </edge>
    <edge id=":gneJ24_19" function="internal">
        <lane id=":gneJ24_19_0" index="0" speed="12.92" length="48.17" shape="-458.28,87.78 -474.68,92.66 -488.50,95.02 -498.04,93.60 -501.60,87.12"/>
    </edge>
    <edge id=":gneJ24_20" function="internal">
        <lane id=":gneJ24_20_0" index="0" speed="11.31" length="36.65" shape="-495.20,87.12 -493.02,89.11 -486.48,88.88 -475.57,86.41 -460.31,81.71"/>
    </edge>
    <edge id=":gneJ24_21" function="internal">
        <lane id=":gneJ24_21_0" index="0" speed="13.30" length="41.03" shape="-495.20,87.12 -492.79,90.66 -485.54,93.18 -473.47,94.70 -456.56,95.20"/>
    </edge>
    <edge id=":gneJ24_22" function="internal">
        <lane id=":gneJ24_22_0" index="0" speed="13.89" length="46.55" shape="-495.20,87.12 -492.89,93.49 -485.97,99.79 -474.44,106.04 -458.28,112.22"/>
    </edge>
    <edge id=":gneJ24_23" function="internal">
        <lane id=":gneJ24_23_0" index="0" speed="13.89" length="25.76" shape="-495.20,87.12 -495.20,112.88"/>
        <lane id=":gneJ24_23_1" index="1" speed="13.89" length="25.76" shape="-498.40,87.12 -498.40,112.88"/>
    </edge>
    <edge id=":gneJ25_0" function="internal">
        <lane id=":gneJ25_0_0" index="0" speed="6.51" length="9.03" shape="195.20,10.40 194.85,7.95 193.80,6.20 192.05,5.15 189.60,4.80"/>
    </edge>
    <edge id=":gneJ25_1" function="internal">
        <lane id=":gneJ25_1_0" index="0" speed="13.89" length="20.80" shape="195.20,10.40 195.20,-10.40"/>
        <lane id=":gneJ25_1_1" index="1" speed="13.89" length="20.80" shape="198.40,10.40 198.40,-10.40"/>
    </edge>
    <edge id=":gneJ25_3" function="internal">
        <lane id=":gneJ25_3_0" index="0" speed="13.89" length="20.80" shape="204.80,-10.40 204.80,10.40"/>
        <lane id=":gneJ25_3_1" index="1" speed="13.89" length="20.80" shape="201.60,-10.40 201.60,10.40"/>
    </edge>
    <edge id=":gneJ25_5" function="internal">
        <lane id=":gneJ25_5_0" index="0" speed="9.26" length="6.96" shape="201.60,-10.40 200.85,-5.15 200.00,-3.73"/>
    </edge>
    <edge id=":gneJ25_8" function="internal">
        <lane id=":gneJ25_8_0" index="0" speed="9.26" length="12.40" shape="200.00,-3.73 198.60,-1.40 194.85,0.85 189.60,1.60"/>
    </edge>
    <edge id=":gneJ25_6" function="internal">
        <lane id=":gneJ25_6_0" index="0" speed="6.51" length="9.03" shape="189.60,-4.80 192.05,-5.15 193.80,-6.20 194.85,-7.95 195.20,-10.40"/>
    </edge>
    <edge id=":gneJ25_7" function="internal">
        <lane id=":gneJ25_7_0" index="0" speed="9.26" length="19.35" shape="189.60,-1.60 194.85,-0.85 198.60,1.40 200.85,5.15 201.60,10.40"/>
    </edge>
    <edge id=":gneJ26_0" function="internal">
        <lane id=":gneJ26_0_0" index="0" speed="13.89" length="54.97" shape="-60.31,18.29 -79.77,10.94 -93.68,3.70 -102.02,-3.41 -104.80,-10.40"/>
    </edge>
    <edge id=":gneJ26_1" function="internal">
        <lane id=":gneJ26_1_0" index="0" speed="13.89" length="51.11" shape="-59.30,15.25 -77.80,8.36 -91.02,1.79 -98.96,-4.46 -101.60,-10.40"/>
    </edge>
    <edge id=":gneJ26_2" function="internal">
        <lane id=":gneJ26_2_0" index="0" speed="7.43" length="4.78" shape="-59.30,15.25 -62.98,12.20"/>
    </edge>
    <edge id=":gneJ26_8" function="internal">
        <lane id=":gneJ26_8_0" index="0" speed="7.43" length="18.88" shape="-62.98,12.20 -64.00,11.36 -64.86,5.70 -62.26,0.61 -56.56,-1.60"/>
    </edge>
    <edge id=":gneJ26_3" function="internal">
        <lane id=":gneJ26_3_0" index="0" speed="5.98" length="14.58" shape="-56.56,4.80 -61.80,5.07 -63.67,5.90 -62.16,7.27 -57.27,9.18"/>
    </edge>
    <edge id=":gneJ26_4" function="internal">
        <lane id=":gneJ26_4_0" index="0" speed="13.89" length="49.17" shape="-56.56,1.60 -76.27,0.85 -90.34,-1.40 -98.79,-5.15 -101.60,-10.40"/>
    </edge>
    <edge id=":gneJ26_5" function="internal">
        <lane id=":gneJ26_5_0" index="0" speed="13.12" length="39.92" shape="-95.20,-10.40 -92.79,-7.95 -85.54,-6.20 -73.47,-5.15 -56.56,-4.80"/>
    </edge>
    <edge id=":gneJ26_6" function="internal">
        <lane id=":gneJ26_6_0" index="0" speed="13.89" length="43.53" shape="-95.20,-10.40 -92.83,-6.57 -85.72,-2.03 -73.87,3.22 -57.27,9.18"/>
    </edge>
    <edge id=":gneJ26_7" function="internal">
        <lane id=":gneJ26_7_0" index="0" speed="13.89" length="47.30" shape="-98.40,-10.40 -95.89,-5.52 -88.37,-0.12 -75.84,5.79 -58.28,12.22"/>
    </edge>
    <edge id=":gneJ27_0" function="internal">
        <lane id=":gneJ27_0_0" index="0" speed="10.36" length="24.51" shape="-504.80,-89.60 -503.85,-96.25 -501.00,-101.00 -496.25,-103.85 -489.60,-104.80"/>
    </edge>
    <edge id=":gneJ27_1" function="internal">
        <lane id=":gneJ27_1_0" index="0" speed="9.26" length="19.35" shape="-501.60,-89.60 -500.85,-94.85 -498.60,-98.60 -494.85,-100.85 -489.60,-101.60"/>
    </edge>
    <edge id=":gneJ27_2" function="internal">
        <lane id=":gneJ27_2_0" index="0" speed="6.51" length="9.03" shape="-489.60,-95.20 -492.05,-94.85 -493.80,-93.80 -494.85,-92.05 -495.20,-89.60"/>
    </edge>
    <edge id=":gneJ27_3" function="internal">
        <lane id=":gneJ27_3_0" index="0" speed="8.00" length="14.19" shape="-489.60,-98.40 -493.45,-97.85 -496.20,-96.20 -497.85,-93.45 -498.40,-89.60"/>
    </edge>
    <edge id=":gneJ27_4" function="internal">
        <lane id=":gneJ27_4_0" index="0" speed="13.89" length="21.09" shape="-510.40,-101.60 -506.45,-102.10 -501.87,-103.20 -496.37,-104.30 -489.60,-104.80"/>
    </edge>
    <edge id=":gneJ27_5" function="internal">
        <lane id=":gneJ27_5_0" index="0" speed="9.26" length="19.35" shape="-510.40,-101.60 -505.15,-100.85 -501.40,-98.60 -499.15,-94.85 -498.40,-89.60"/>
    </edge>
    <edge id=":gneJ28_0" function="internal">
        <lane id=":gneJ28_0_0" index="0" speed="6.51" length="9.03" shape="-404.80,-89.60 -405.15,-92.05 -406.20,-93.80 -407.95,-94.85 -410.40,-95.20"/>
    </edge>
    <edge id=":gneJ28_1" function="internal">
        <lane id=":gneJ28_1_0" index="0" speed="9.26" length="19.35" shape="-401.60,-89.60 -400.85,-94.85 -398.60,-98.60 -394.85,-100.85 -389.60,-101.60"/>
    </edge>
    <edge id=":gneJ28_2" function="internal">
        <lane id=":gneJ28_2_0" index="0" speed="6.51" length="9.03" shape="-389.60,-95.20 -392.05,-94.85 -393.80,-93.80 -394.85,-92.05 -395.20,-89.60"/>
    </edge>
    <edge id=":gneJ28_3" function="internal">
        <lane id=":gneJ28_3_0" index="0" speed="13.89" length="20.80" shape="-389.60,-95.20 -410.40,-95.20"/>
        <lane id=":gneJ28_3_1" index="1" speed="13.89" length="20.80" shape="-389.60,-98.40 -410.40,-98.40"/>
    </edge>
    <edge id=":gneJ28_5" function="internal">