<?xml version="1.0" encoding="UTF-8"?>
<routes xmlns:xsi="http://www.w3.org/2001/XMLSchema-instance" xsi:noNamespaceSchemaLocation="http://sumo.dlr.de/xsd/routes_file.xsd">
  <vType accel="1.0" decel="5.0" id="Car" length="5.0" minGap="2.0" maxSpeed="50.0" sigma="0" />
  
  <!-- <route id="route1" edges="gneE88" /> -->
  <!-- <route id="route1" edges="gneE90" /> -->
  <!-- <route id="route1" edges="gneE92" /> -->
  <!-- <route id="route1" edges="gneE93" /> -->

  <flow id="veh_type1" color="1,1,0" begin="0" end= "720" period="10" type="Car">
    <route edges="gneE88" />
  </flow>

  <flow id="veh_type2" color="1,0,1" begin="0" end= "720" period="10" type="Car">
    <route edges="gneE90" />
  </flow>

  <flow id="veh_type3" color="1,0,0" begin="0" end= "720" period="10" type="Car">
    <route edges="gneE92" />
  </flow>

  <flow id="veh_type4" color="0,1,0" begin="0" end= "720" period="10" type="Car">
    <route edges="gneE93" />
  </flow>
</routes>
