<?xml version="1.0" encoding="utf-8"?>
<additional xmlns:xsi="http://www.w3.org/2001/XMLSchema-instance" xsi:noNamespaceSchemaLocation="http://sumo.dlr.de/xsd/additional_file.xsd">
	<parkingArea id="parkingArea_198085615#0_0_14" lane="198085615#0_0" friendlyPos="1" startPos="75.26" endPos="155.26" roadsideCapacity="2"></parkingArea>
	<parkingArea id="parkingArea_28785687#17_0_26" lane="28785687#17_0" friendlyPos="1" startPos="322.89" endPos="402.89" roadsideCapacity="3"></parkingArea>
	<parkingArea id="parkingArea_28785404#4_0_9" lane="28785404#4_0" friendlyPos="1" startPos="165.44" endPos="245.44" roadsideCapacity="3"></parkingArea>
	<parkingArea id="parkingArea_421432454#8_0_22" lane="421432454#8_0" friendlyPos="1" startPos="120.65" endPos="200.65" roadsideCapacity="2"></parkingArea>
	<parkingArea id="parkingArea_-28786590#23_0_27" lane="-28786590#23_0" friendlyPos="1" startPos="108.12" endPos="188.12" roadsideCapacity="3"></parkingArea>
	<parkingArea id="parkingArea_-102119729#17_0_2" lane="-102119729#17_0" friendlyPos="1" startPos="495.24" endPos="575.24" roadsideCapacity="1"></parkingArea>
	<parkingArea id="parkingArea_-28789844#10_0_1" lane="-28789844#10_0" friendlyPos="1" startPos="52.08" endPos="132.08" roadsideCapacity="3"></parkingArea>
	<parkingArea id="parkingArea_-421287678#1_0_6" lane="-421287678#1_0" friendlyPos="1" startPos="29.13" endPos="109.13" roadsideCapacity="5"></parkingArea>
	<parkingArea id="parkingArea_28786723#3_0_21" lane="28786723#3_0" friendlyPos="1" startPos="72.00" endPos="152.00" roadsideCapacity="3"></parkingArea>
	<parkingArea id="parkingArea_-421432454#0_0_17" lane="-421432454#0_0" friendlyPos="1" startPos="89.41" endPos="169.41" roadsideCapacity="2"></parkingArea>
	<parkingArea id="parkingArea_472056901#6_1_23" lane="472056901#6_1" friendlyPos="1" startPos="36.16" endPos="116.16" roadsideCapacity="3"></parkingArea>
	<parkingArea id="parkingArea_420988159#1_0_11" lane="420988159#1_0" friendlyPos="1" startPos="83.48" endPos="163.48" roadsideCapacity="1"></parkingArea>
	<parkingArea id="parkingArea_-421289000_0_8" lane="-421289000_0" friendlyPos="1" startPos="101.31" endPos="181.31" roadsideCapacity="1"></parkingArea>
	<parkingArea id="parkingArea_-28785687#6_0_12" lane="-28785687#6_0" friendlyPos="1" startPos="32.31" endPos="112.31" roadsideCapacity="2"></parkingArea>
	<parkingArea id="parkingArea_-28786733#13_0_28" lane="-28786733#13_0" friendlyPos="1" startPos="204.48" endPos="284.48" roadsideCapacity="3"></parkingArea>
	<parkingArea id="parkingArea_28786618_0_15" lane="28786618_0" friendlyPos="1" startPos="88.08" endPos="168.08" roadsideCapacity="1"></parkingArea>
	<parkingArea id="parkingArea_-28786688#0_0_25" lane="-28786688#0_0" friendlyPos="1" startPos="285.51" endPos="365.51" roadsideCapacity="1"></parkingArea>
	<parkingArea id="parkingArea_-102119729#6_0_3" lane="-102119729#6_0" friendlyPos="1" startPos="140.23" endPos="220.23" roadsideCapacity="3"></parkingArea>
	<parkingArea id="parkingArea_198085615#21_0_0" lane="198085615#21_0" friendlyPos="1" startPos="63.49" endPos="143.49" roadsideCapacity="5"></parkingArea>
	<parkingArea id="parkingArea_28785399#4_0_16" lane="28785399#4_0" friendlyPos="1" startPos="97.02" endPos="177.02" roadsideCapacity="1"></parkingArea>
	<parkingArea id="parkingArea_28789844#0_0_20" lane="28789844#0_0" friendlyPos="1" startPos="130.61" endPos="210.61" roadsideCapacity="5"></parkingArea>
	<parkingArea id="parkingArea_-102119729#0_0_24" lane="-102119729#0_0" friendlyPos="1" startPos="26.35" endPos="106.35" roadsideCapacity="2"></parkingArea>
	<parkingArea id="parkingArea_472055641#0_0_13" lane="472055641#0_0" friendlyPos="1" startPos="24.94" endPos="104.94" roadsideCapacity="2"></parkingArea>
	<parkingArea id="parkingArea_28786733#0_0_19" lane="28786733#0_0" friendlyPos="1" startPos="209.56" endPos="289.56" roadsideCapacity="3"></parkingArea>
	<parkingArea id="parkingArea_-28785687#9_0_7" lane="-28785687#9_0" friendlyPos="1" startPos="37.33" endPos="117.33" roadsideCapacity="3"></parkingArea>
	<parkingArea id="parkingArea_420988143_0_5" lane="420988143_0" friendlyPos="1" startPos="60.39" endPos="140.39" roadsideCapacity="2"></parkingArea>
	<parkingArea id="parkingArea_-421282604#0_0_10" lane="-421282604#0_0" friendlyPos="1" startPos="28.05" endPos="108.05" roadsideCapacity="1"></parkingArea>
	<parkingArea id="parkingArea_-421283315#2_0_18" lane="-421283315#2_0" friendlyPos="1" startPos="27.50" endPos="107.50" roadsideCapacity="1"></parkingArea>
	<parkingArea id="parkingArea_-421280756_0_4" lane="-421280756_0" friendlyPos="1" startPos="54.32" endPos="134.32" roadsideCapacity="4"></parkingArea>
</additional>