<?xml version="1.0" encoding="UTF-8"?>
<routes xmlns:xsi="http://www.w3.org/2001/XMLSchema-instance" xsi:noNamespaceSchemaLocation="http://sumo.dlr.de/xsd/routes_file.xsd">
  <vType accel="1.0" decel="5.0" id="Car" length="5.0" minGap="2.0" maxSpeed="100.0" sigma="0" />
  
  <flow id="home" color="1,1,0" begin="0" end= "1000" period="10" type="Car">
    <route edges="-421290163" />
  </flow>

</routes>
