<?xml version="1.0" encoding="UTF-8"?>

<!-- generated on Sunday 23 June 2019 06:22:00 PM IST by Eclipse SUMO netedit Version 1.2.0
<configuration xmlns:xsi="http://www.w3.org/2001/XMLSchema-instance" xsi:noNamespaceSchemaLocation="http://sumo.dlr.de/xsd/netconvertConfiguration.xsd">

    <input>
        <sumo-net-file value="/home/tara/codes/aco/osm/cl.net.xml"/>
    </input>

    <output>
        <output-file value="/home/tara/codes/aco/osm/cl.net.xml"/>
    </output>

    <processing>
        <geometry.max-grade.fix value="false"/>
        <offset.disable-normalization value="true"/>
        <lefthand value="false"/>
    </processing>

    <junctions>
        <no-turnarounds value="true"/>
        <junctions.corner-detail value="5"/>
        <junctions.limit-turn-speed value="5.5"/>
        <rectangular-lane-cut value="false"/>
    </junctions>

    <pedestrian>
        <walkingareas value="false"/>
    </pedestrian>

</configuration>
-->

<net version="1.1" junctionCornerDetail="5" limitTurnSpeed="5.50" xmlns:xsi="http://www.w3.org/2001/XMLSchema-instance" xsi:noNamespaceSchemaLocation="http://sumo.dlr.de/xsd/net_file.xsd">

    <location netOffset="-580165.14,-2814382.64" convBoundary="0.00,0.00,4840.83,2911.07" origBoundary="81.797299,25.442868,81.845514,25.470400" projParameter="+proj=utm +zone=44 +ellps=WGS84 +datum=WGS84 +units=m +no_defs"/>

    <type id="highway.bridleway" priority="1" numLanes="1" speed="2.78" allow="pedestrian" oneway="1" width="2.00"/>
    <type id="highway.bus_guideway" priority="1" numLanes="1" speed="27.78" allow="bus" oneway="1"/>
    <type id="highway.cycleway" priority="1" numLanes="1" speed="8.33" allow="bicycle" oneway="0" width="1.00"/>
    <type id="highway.footway" priority="1" numLanes="1" speed="2.78" allow="pedestrian" oneway="1" width="2.00"/>
    <type id="highway.ford" priority="1" numLanes="1" speed="2.78" allow="army" oneway="0"/>
    <type id="highway.living_street" priority="2" numLanes="1" speed="2.78" disallow="tram rail_urban rail rail_electric ship" oneway="0"/>
    <type id="highway.motorway" priority="14" numLanes="2" speed="39.44" allow="private emergency authority army vip passenger hov taxi bus coach delivery truck trailer motorcycle evehicle custom1 custom2" oneway="1"/>
    <type id="highway.motorway_link" priority="9" numLanes="1" speed="22.22" allow="private emergency authority army vip passenger hov taxi bus coach delivery truck trailer motorcycle evehicle custom1 custom2" oneway="1"/>
    <type id="highway.path" priority="1" numLanes="1" speed="2.78" allow="bicycle pedestrian" oneway="1" width="2.00"/>
    <type id="highway.pedestrian" priority="1" numLanes="1" speed="2.78" allow="pedestrian" oneway="1" width="2.00"/>
    <type id="highway.primary" priority="12" numLanes="2" speed="27.78" disallow="tram rail_urban rail rail_electric ship" oneway="0"/>
    <type id="highway.primary_link" priority="7" numLanes="1" speed="22.22" disallow="tram rail_urban rail rail_electric ship" oneway="0"/>
    <type id="highway.raceway" priority="15" numLanes="2" speed="83.33" allow="vip" oneway="0"/>
    <type id="highway.residential" priority="3" numLanes="1" speed="13.89" disallow="tram rail_urban rail rail_electric ship" oneway="0"/>
    <type id="highway.secondary" priority="11" numLanes="2" speed="27.78" disallow="tram rail_urban rail rail_electric ship" oneway="0"/>
    <type id="highway.secondary_link" priority="6" numLanes="1" speed="22.22" disallow="tram rail_urban rail rail_electric ship" oneway="0"/>
    <type id="highway.service" priority="1" numLanes="1" speed="5.56" allow="delivery bicycle pedestrian" oneway="0"/>
    <type id="highway.stairs" priority="1" numLanes="1" speed="1.39" allow="pedestrian" oneway="1" width="2.00"/>
    <type id="highway.step" priority="1" numLanes="1" speed="1.39" allow="pedestrian" oneway="1" width="2.00"/>
    <type id="highway.steps" priority="1" numLanes="1" speed="1.39" allow="pedestrian" oneway="1" width="2.00"/>
    <type id="highway.tertiary" priority="10" numLanes="1" speed="22.22" disallow="tram rail_urban rail rail_electric ship" oneway="0"/>
    <type id="highway.tertiary_link" priority="5" numLanes="1" speed="22.22" disallow="tram rail_urban rail rail_electric ship" oneway="0"/>
    <type id="highway.track" priority="1" numLanes="1" speed="5.56" disallow="tram rail_urban rail rail_electric ship" oneway="0"/>
    <type id="highway.trunk" priority="13" numLanes="2" speed="27.78" disallow="tram rail_urban rail rail_electric bicycle pedestrian ship" oneway="0"/>
    <type id="highway.trunk_link" priority="8" numLanes="1" speed="22.22" disallow="tram rail_urban rail rail_electric bicycle pedestrian ship" oneway="0"/>
    <type id="highway.unclassified" priority="4" numLanes="1" speed="13.89" disallow="tram rail_urban rail rail_electric ship" oneway="0"/>
    <type id="highway.unsurfaced" priority="1" numLanes="1" speed="8.33" disallow="tram rail_urban rail rail_electric ship" oneway="0"/>
    <type id="railway.light_rail" priority="19" numLanes="1" speed="27.78" allow="rail_urban" oneway="1"/>
    <type id="railway.preserved" priority="16" numLanes="1" speed="27.78" allow="rail" oneway="1"/>
    <type id="railway.rail" priority="20" numLanes="1" speed="83.33" allow="rail rail_electric" oneway="1"/>
    <type id="railway.subway" priority="18" numLanes="1" speed="27.78" allow="rail_urban" oneway="1"/>
    <type id="railway.tram" priority="17" numLanes="1" speed="13.89" allow="tram" oneway="1"/>

    <edge id=":2062140970_0" function="internal">
        <lane id=":2062140970_0_0" index="0" disallow="tram rail_urban rail rail_electric ship" speed="13.89" length="9.42" shape="3343.51,724.85 3342.32,715.50"/>
    </edge>
    <edge id=":2062140970_1" function="internal">
        <lane id=":2062140970_1_0" index="0" allow="delivery bicycle pedestrian" speed="6.79" length="5.15" shape="3343.51,724.85 3343.56,721.91 3344.50,719.90"/>
    </edge>
    <edge id=":2062140970_2" function="internal">
        <lane id=":2062140970_2_0" index="0" disallow="tram rail_urban rail rail_electric ship" speed="3.65" length="2.34" shape="3343.51,724.85 3344.16,723.56 3344.90,723.06"/>
    </edge>
    <edge id=":2062140970_9" function="internal">
        <lane id=":2062140970_9_0" index="0" allow="delivery bicycle pedestrian" speed="6.79" length="5.44" shape="3344.50,719.90 3344.56,719.77 3346.50,718.44 3349.39,717.90"/>
    </edge>
    <edge id=":2062140970_10" function="internal">
        <lane id=":2062140970_10_0" index="0" disallow="tram rail_urban rail rail_electric ship" speed="3.65" length="2.34" shape="3344.90,723.06 3345.74,723.36 3346.69,724.45"/>
    </edge>
    <edge id=":2062140970_3" function="internal">
        <lane id=":2062140970_3_0" index="0" disallow="tram rail_urban rail rail_electric ship" speed="4.95" length="5.11" shape="3349.52,721.10 3348.13,721.35 3347.19,722.00 3346.71,723.03 3346.69,724.45"/>
    </edge>
    <edge id=":2062140970_4" function="internal">
        <lane id=":2062140970_4_0" index="0" disallow="tram rail_urban rail rail_electric ship" speed="7.09" length="10.20" shape="3349.52,721.10 3346.65,720.84 3344.49,719.83 3343.05,718.05 3342.32,715.50"/>
    </edge>
    <edge id=":2062140970_5" function="internal">
        <lane id=":2062140970_5_0" index="0" allow="delivery bicycle pedestrian" speed="3.65" length="4.67" shape="3349.52,721.10 3348.29,720.35 3347.86,719.56 3348.22,718.75 3349.39,717.90"/>
    </edge>
    <edge id=":2062140970_6" function="internal">
        <lane id=":2062140970_6_0" index="0" allow="delivery bicycle pedestrian" speed="5.34" length="5.36" shape="3345.50,715.10 3345.88,716.38 3346.66,717.27 3347.83,717.78 3349.39,717.90"/>
    </edge>
    <edge id=":2062140970_7" function="internal">
        <lane id=":2062140970_7_0" index="0" disallow="tram rail_urban rail rail_electric ship" speed="13.89" length="9.42" shape="3345.50,715.10 3346.69,724.45"/>
    </edge>
    <edge id=":2062140970_8" function="internal">
        <lane id=":2062140970_8_0" index="0" disallow="tram rail_urban rail rail_electric ship" speed="3.65" length="2.34" shape="3345.50,715.10 3344.85,716.39 3344.11,716.89"/>
    </edge>
    <edge id=":2062140970_11" function="internal">
        <lane id=":2062140970_11_0" index="0" disallow="tram rail_urban rail rail_electric ship" speed="3.65" length="2.34" shape="3344.11,716.89 3343.27,716.59 3342.32,715.50"/>
    </edge>
    <edge id=":2062140973_0" function="internal">
        <lane id=":2062140973_0_0" index="0" allow="delivery bicycle pedestrian" speed="5.35" length="5.37" shape="3508.39,707.40 3507.10,707.73 3506.17,708.46 3505.60,709.61 3505.41,711.17"/>
    </edge>
    <edge id=":2062140973_1" function="internal">
        <lane id=":2062140973_1_0" index="0" allow="delivery bicycle pedestrian" speed="5.56" length="9.46" shape="3508.39,707.40 3498.96,708.15"/>
    </edge>
    <edge id=":2062140973_2" function="internal">
        <lane id=":2062140973_2_0" index="0" allow="delivery bicycle pedestrian" speed="5.56" length="10.23" shape="3508.39,707.40 3505.76,707.21 3503.71,706.17 3502.26,704.26 3501.41,701.49"/>
    </edge>
    <edge id=":2062140973_3" function="internal">
        <lane id=":2062140973_3_0" index="0" allow="delivery bicycle pedestrian" speed="3.65" length="4.67" shape="3508.39,707.40 3507.13,706.70 3506.67,705.94 3507.00,705.11 3508.13,704.21"/>
    </edge>
    <edge id=":2062140973_4" function="internal">
        <lane id=":2062140973_4_0" index="0" allow="delivery bicycle pedestrian" speed="5.36" length="5.40" shape="3504.56,700.94 3505.02,702.46 3505.76,703.52 3506.80,704.10 3508.13,704.21"/>
    </edge>
    <edge id=":2062140973_5" function="internal">
        <lane id=":2062140973_5_0" index="0" allow="delivery bicycle pedestrian" speed="5.56" length="10.28" shape="3504.56,700.94 3505.06,703.92 3505.32,706.03 3505.41,708.15 3505.41,711.17"/>
    </edge>
    <edge id=":2062140973_6" function="internal">
        <lane id=":2062140973_6_0" index="0" allow="delivery bicycle pedestrian" speed="5.56" length="10.65" shape="3504.56,700.94 3504.65,703.90 3503.75,706.09 3501.85,707.50 3498.96,708.15"/>
    </edge>
    <edge id=":2062140973_7" function="internal">
        <lane id=":2062140973_7_0" index="0" allow="delivery bicycle pedestrian" speed="3.65" length="4.67" shape="3504.56,700.94 3503.98,702.26 3503.26,702.80 3502.41,702.54 3501.41,701.49"/>
    </edge>
    <edge id=":2062140973_8" function="internal">
        <lane id=":2062140973_8_0" index="0" allow="delivery bicycle pedestrian" speed="4.94" length="5.12" shape="3498.72,704.96 3500.11,704.65 3501.02,703.97 3501.45,702.92 3501.41,701.49"/>
    </edge>
    <edge id=":2062140973_9" function="internal">
        <lane id=":2062140973_9_0" index="0" allow="delivery bicycle pedestrian" speed="5.56" length="9.44" shape="3498.72,704.96 3508.13,704.21"/>
    </edge>
    <edge id=":2062140973_10" function="internal">
        <lane id=":2062140973_10_0" index="0" allow="delivery bicycle pedestrian" speed="5.56" length="10.62" shape="3498.72,704.96 3501.67,705.15 3503.76,706.25 3505.01,708.26 3505.41,711.17"/>
    </edge>
    <edge id=":2062140973_11" function="internal">
        <lane id=":2062140973_11_0" index="0" allow="delivery bicycle pedestrian" speed="3.65" length="4.67" shape="3498.72,704.96 3499.98,705.66 3500.43,706.43 3500.10,707.26 3498.96,708.15"/>
    </edge>
    <edge id=":2062140973_12" function="internal">
        <lane id=":2062140973_12_0" index="0" allow="delivery bicycle pedestrian" speed="4.97" length="5.14" shape="3502.21,711.14 3502.01,709.74 3501.41,708.77 3500.39,708.24 3498.96,708.15"/>
    </edge>
    <edge id=":2062140973_13" function="internal">
        <lane id=":2062140973_13_0" index="0" allow="delivery bicycle pedestrian" speed="5.56" length="9.70" shape="3502.21,711.14 3502.22,708.26 3502.14,706.29 3501.89,704.33 3501.41,701.49"/>
    </edge>
    <edge id=":2062140973_14" function="internal">
        <lane id=":2062140973_14_0" index="0" allow="delivery bicycle pedestrian" speed="5.56" length="10.19" shape="3502.21,711.14 3502.60,708.29 3503.71,706.19 3505.56,704.83 3508.13,704.21"/>
    </edge>
    <edge id=":2062140973_15" function="internal">
        <lane id=":2062140973_15_0" index="0" allow="delivery bicycle pedestrian" speed="3.65" length="4.67" shape="3502.21,711.14 3503.02,709.95 3503.82,709.55 3504.62,709.96 3505.41,711.17"/>
    </edge>
    <edge id=":2062140974_0" function="internal">
        <lane id=":2062140974_0_0" index="0" allow="delivery bicycle pedestrian" speed="4.96" length="5.10" shape="3451.38,715.02 3451.17,713.62 3450.57,712.66 3449.56,712.14 3448.14,712.06"/>
    </edge>
    <edge id=":2062140974_1" function="internal">
        <lane id=":2062140974_1_0" index="0" allow="delivery bicycle pedestrian" speed="5.56" length="10.23" shape="3451.38,715.02 3451.66,704.80"/>
    </edge>
    <edge id=":2062140974_2" function="internal">
        <lane id=":2062140974_2_0" index="0" allow="delivery bicycle pedestrian" speed="5.56" length="10.78" shape="3451.38,715.02 3451.78,712.16 3453.02,710.05 3455.09,708.68 3457.98,708.05"/>
    </edge>
    <edge id=":2062140974_3" function="internal">
        <lane id=":2062140974_3_0" index="0" allow="delivery bicycle pedestrian" speed="3.65" length="4.67" shape="3451.38,715.02 3452.18,713.81 3452.97,713.41 3453.78,713.81 3454.58,715.00"/>
    </edge>
    <edge id=":2062140974_4" function="internal">
        <lane id=":2062140974_4_0" index="0" allow="delivery bicycle pedestrian" speed="5.53" length="5.88" shape="3458.23,711.24 3456.63,711.58 3455.49,712.32 3454.80,713.46 3454.58,715.00"/>
    </edge>
    <edge id=":2062140974_5" function="internal">
        <lane id=":2062140974_5_0" index="0" allow="delivery bicycle pedestrian" speed="5.56" length="10.12" shape="3458.23,711.24 3448.14,712.06"/>
    </edge>
    <edge id=":2062140974_6" function="internal">
        <lane id=":2062140974_6_0" index="0" allow="delivery bicycle pedestrian" speed="5.56" length="10.85" shape="3458.23,711.24 3455.20,711.04 3453.10,709.90 3451.92,707.82 3451.66,704.80"/>
    </edge>
    <edge id=":2062140974_7" function="internal">
        <lane id=":2062140974_7_0" index="0" allow="delivery bicycle pedestrian" speed="3.65" length="4.67" shape="3458.23,711.24 3456.97,710.54 3456.51,709.77 3456.85,708.94 3457.98,708.05"/>
    </edge>
    <edge id=":2062140974_8" function="internal">
        <lane id=":2062140974_8_0" index="0" allow="delivery bicycle pedestrian" speed="4.91" length="5.17" shape="3454.86,704.98 3454.98,706.42 3455.54,707.41 3456.54,707.96 3457.98,708.05"/>
    </edge>
    <edge id=":2062140974_9" function="internal">
        <lane id=":2062140974_9_0" index="0" allow="delivery bicycle pedestrian" speed="5.56" length="10.03" shape="3454.86,704.98 3454.58,715.00"/>
    </edge>
    <edge id=":2062140974_10" function="internal">
        <lane id=":2062140974_10_0" index="0" allow="delivery bicycle pedestrian" speed="5.56" length="10.80" shape="3454.86,704.98 3454.29,707.87 3452.99,710.02 3450.94,711.41 3448.14,712.06"/>
    </edge>
    <edge id=":2062140974_11" function="internal">
        <lane id=":2062140974_11_0" index="0" allow="delivery bicycle pedestrian" speed="3.65" length="4.67" shape="3454.86,704.98 3453.99,706.13 3453.17,706.49 3452.39,706.04 3451.66,704.80"/>
    </edge>
    <edge id=":2062140974_12" function="internal">
        <lane id=":2062140974_12_0" index="0" allow="delivery bicycle pedestrian" speed="5.56" length="6.16" shape="3447.87,708.87 3449.45,708.50 3450.61,707.70 3451.34,706.46 3451.66,704.80"/>
    </edge>
    <edge id=":2062140974_13" function="internal">
        <lane id=":2062140974_13_0" index="0" allow="delivery bicycle pedestrian" speed="5.56" length="10.15" shape="3447.87,708.87 3457.98,708.05"/>
    </edge>
    <edge id=":2062140974_14" function="internal">
        <lane id=":2062140974_14_0" index="0" allow="delivery bicycle pedestrian" speed="5.56" length="10.57" shape="3447.87,708.87 3450.80,709.04 3452.89,710.12 3454.15,712.11 3454.58,715.00"/>
    </edge>
    <edge id=":2062140974_15" function="internal">
        <lane id=":2062140974_15_0" index="0" allow="delivery bicycle pedestrian" speed="3.65" length="4.67" shape="3447.87,708.87 3449.14,709.56 3449.60,710.33 3449.27,711.16 3448.14,712.06"/>
    </edge>
    <edge id=":2062140975_0" function="internal">
        <lane id=":2062140975_0_0" index="0" disallow="tram rail_urban rail rail_electric ship" speed="22.22" length="9.43" shape="3457.87,723.51 3448.49,724.48"/>
    </edge>
    <edge id=":2062140975_1" function="internal">
        <lane id=":2062140975_1_0" index="0" allow="delivery bicycle pedestrian" speed="5.99" length="8.04" shape="3457.87,723.51 3455.05,723.58 3453.03,723.11 3451.81,722.12 3451.41,720.60"/>
    </edge>
    <edge id=":2062140975_2" function="internal">
        <lane id=":2062140975_2_0" index="0" disallow="tram rail_urban rail rail_electric ship" speed="6.36" length="7.93" shape="3454.61,720.58 3454.23,722.05 3453.08,723.19 3451.17,724.00 3448.49,724.48"/>
    </edge>
    <edge id=":2062140975_3" function="internal">
        <lane id=":2062140975_3_0" index="0" allow="delivery bicycle pedestrian" speed="3.65" length="4.67" shape="3454.61,720.58 3453.81,721.78 3453.01,722.19 3452.21,721.79 3451.41,720.60"/>
    </edge>
    <edge id=":2062140999_0" function="internal">
        <lane id=":2062140999_0_0" index="0" disallow="tram rail_urban rail rail_electric ship" speed="22.22" length="9.47" shape="3508.63,718.23 3499.22,719.27"/>
    </edge>
    <edge id=":2062140999_1" function="internal">
        <lane id=":2062140999_1_0" index="0" allow="delivery bicycle pedestrian" speed="5.96" length="8.13" shape="3508.63,718.23 3505.79,718.34 3503.77,717.88 3502.56,716.86 3502.17,715.28"/>
    </edge>
    <edge id=":2062140999_2" function="internal">
        <lane id=":2062140999_2_0" index="0" disallow="tram rail_urban rail rail_electric ship" speed="6.41" length="8.00" shape="3505.37,715.31 3504.98,716.81 3503.82,717.97 3501.90,718.79 3499.22,719.27"/>
    </edge>
    <edge id=":2062140999_3" function="internal">
        <lane id=":2062140999_3_0" index="0" allow="delivery bicycle pedestrian" speed="3.65" length="4.67" shape="3505.37,715.31 3504.56,716.50 3503.76,716.89 3502.96,716.48 3502.17,715.28"/>
    </edge>
    <edge id=":2082692541_0" function="internal">
        <lane id=":2082692541_0_0" index="0" disallow="tram rail_urban rail rail_electric ship" speed="6.80" length="9.43" shape="2900.38,500.92 2899.58,498.54 2898.18,496.93 2896.18,496.08 2893.57,496.00"/>
    </edge>
    <edge id=":2082692541_1" function="internal">
        <lane id=":2082692541_1_0" index="0" disallow="tram rail_urban rail rail_electric ship" speed="22.22" length="14.49" shape="2900.38,500.92 2898.05,486.62"/>
    </edge>
    <edge id=":2082692541_2" function="internal">
        <lane id=":2082692541_2_0" index="0" disallow="tram rail_urban rail rail_electric ship" speed="7.81" length="14.21" shape="2900.38,500.92 2900.27,497.06 2901.50,494.17 2904.05,492.25 2907.94,491.29"/>
    </edge>
    <edge id=":2082692541_3" function="internal">
        <lane id=":2082692541_3_0" index="0" disallow="tram rail_urban rail rail_electric ship" speed="3.65" length="4.67" shape="2900.38,500.92 2900.95,499.60 2901.67,499.06 2902.53,499.32 2903.53,500.36"/>
    </edge>
    <edge id=":2082692541_4" function="internal">
        <lane id=":2082692541_4_0" index="0" disallow="tram rail_urban rail rail_electric ship" speed="6.27" length="8.77" shape="2908.27,494.47 2905.84,495.06 2904.24,496.24 2903.47,498.01 2903.53,500.36"/>
    </edge>
    <edge id=":2082692541_5" function="internal">
        <lane id=":2082692541_5_0" index="0" disallow="tram rail_urban rail rail_electric ship" speed="22.22" length="14.78" shape="2908.27,494.47 2893.57,496.00"/>
    </edge>
    <edge id=":2082692541_6" function="internal">
        <lane id=":2082692541_6_0" index="0" disallow="tram rail_urban rail rail_electric ship" speed="8.23" length="6.08" shape="2908.27,494.47 2904.29,494.33 2902.38,493.48"/>
    </edge>
    <edge id=":2082692541_7" function="internal">
        <lane id=":2082692541_7_0" index="0" disallow="tram rail_urban rail rail_electric ship" speed="3.65" length="2.34" shape="2908.27,494.47 2907.00,493.80 2906.52,493.04"/>
    </edge>
    <edge id=":2082692541_16" function="internal">
        <lane id=":2082692541_16_0" index="0" disallow="tram rail_urban rail rail_electric ship" speed="8.23" length="8.48" shape="2902.38,493.48 2901.26,492.97 2899.18,490.40 2898.05,486.62"/>
    </edge>
    <edge id=":2082692541_17" function="internal">
        <lane id=":2082692541_17_0" index="0" disallow="tram rail_urban rail rail_electric ship" speed="3.65" length="2.34" shape="2906.52,493.04 2906.83,492.21 2907.94,491.29"/>
    </edge>
    <edge id=":2082692541_8" function="internal">
        <lane id=":2082692541_8_0" index="0" disallow="tram rail_urban rail rail_electric ship" speed="6.78" length="9.56" shape="2901.21,486.15 2901.95,488.63 2903.32,490.31 2905.32,491.20 2907.94,491.29"/>
    </edge>
    <edge id=":2082692541_9" function="internal">
        <lane id=":2082692541_9_0" index="0" disallow="tram rail_urban rail rail_electric ship" speed="22.22" length="14.40" shape="2901.21,486.15 2903.53,500.36"/>
    </edge>
    <edge id=":2082692541_10" function="internal">
        <lane id=":2082692541_10_0" index="0" disallow="tram rail_urban rail rail_electric ship" speed="7.92" length="14.36" shape="2901.21,486.15 2901.23,490.11 2899.97,493.07 2897.41,495.04 2893.57,496.00"/>
    </edge>
    <edge id=":2082692541_11" function="internal">
        <lane id=":2082692541_11_0" index="0" disallow="tram rail_urban rail rail_electric ship" speed="3.65" length="4.67" shape="2901.21,486.15 2900.60,487.46 2899.87,487.97 2899.02,487.69 2898.05,486.62"/>
    </edge>
    <edge id=":2082692541_12" function="internal">
        <lane id=":2082692541_12_0" index="0" disallow="tram rail_urban rail rail_electric ship" speed="6.41" length="9.04" shape="2893.24,492.82 2895.66,492.21 2897.26,490.98 2898.06,489.11 2898.05,486.62"/>
    </edge>
    <edge id=":2082692541_13" function="internal">
        <lane id=":2082692541_13_0" index="0" disallow="tram rail_urban rail rail_electric ship" speed="22.22" length="14.78" shape="2893.24,492.82 2907.94,491.29"/>
    </edge>
    <edge id=":2082692541_14" function="internal">
        <lane id=":2082692541_14_0" index="0" disallow="tram rail_urban rail rail_electric ship" speed="8.25" length="6.12" shape="2893.24,492.82 2897.18,492.95 2899.18,493.81"/>
    </edge>
    <edge id=":2082692541_15" function="internal">
        <lane id=":2082692541_15_0" index="0" disallow="tram rail_urban rail rail_electric ship" speed="3.65" length="2.34" shape="2893.24,492.82 2894.52,493.49 2895.00,494.25"/>
    </edge>
    <edge id=":2082692541_18" function="internal">
        <lane id=":2082692541_18_0" index="0" disallow="tram rail_urban rail rail_electric ship" speed="8.25" length="8.20" shape="2899.18,493.81 2900.20,494.25 2902.32,496.72 2903.53,500.36"/>
    </edge>
    <edge id=":2082692541_19" function="internal">
        <lane id=":2082692541_19_0" index="0" disallow="tram rail_urban rail rail_electric ship" speed="3.65" length="2.34" shape="2895.00,494.25 2894.68,495.08 2893.57,496.00"/>
    </edge>
    <edge id=":2082978344_0" function="internal">
        <lane id=":2082978344_0_0" index="0" disallow="tram rail_urban rail rail_electric ship" speed="3.65" length="4.67" shape="4645.33,882.16 4646.62,882.81 4647.11,883.56 4646.81,884.40 4645.71,885.34"/>
    </edge>
    <edge id=":2083001575_0" function="internal">
        <lane id=":2083001575_0_0" index="0" allow="delivery bicycle pedestrian" speed="3.65" length="4.67" shape="4078.16,1042.30 4079.43,1042.98 4079.90,1043.74 4079.58,1044.58 4078.46,1045.48"/>
    </edge>
    <edge id=":2094902690_0" function="internal">
        <lane id=":2094902690_0_0" index="0" disallow="tram rail_urban rail rail_electric ship" speed="22.22" length="9.46" shape="3840.55,678.72 3831.13,679.60"/>
    </edge>
    <edge id=":2094902690_1" function="internal">
        <lane id=":2094902690_1_0" index="0" allow="delivery bicycle pedestrian" speed="6.22" length="7.89" shape="3840.55,678.72 3837.80,678.81 3835.78,678.42 3834.46,677.54 3833.86,676.17"/>
    </edge>
    <edge id=":2094902690_2" function="internal">
        <lane id=":2094902690_2_0" index="0" disallow="tram rail_urban rail rail_electric ship" speed="6.01" length="7.96" shape="3837.02,675.69 3836.85,677.21 3835.81,678.37 3833.90,679.17 3831.13,679.60"/>
    </edge>
    <edge id=":2094902690_3" function="internal">
        <lane id=":2094902690_3_0" index="0" allow="delivery bicycle pedestrian" speed="3.65" length="4.67" shape="3837.02,675.69 3836.41,676.99 3835.68,677.51 3834.83,677.23 3833.86,676.17"/>
    </edge>
    <edge id=":2094902699_0" function="internal">
        <lane id=":2094902699_0_0" index="0" disallow="tram rail_urban rail rail_electric ship" speed="22.22" length="8.90" shape="3721.63,590.38 3721.58,587.74 3721.50,585.93 3721.32,584.13 3721.01,581.50"/>
    </edge>
    <edge id=":2094902699_1" function="internal">
        <lane id=":2094902699_1_0" index="0" allow="delivery bicycle pedestrian" speed="7.11" length="4.83" shape="3721.63,590.38 3721.98,587.82 3723.10,585.87"/>
    </edge>
    <edge id=":2094902699_2" function="internal">
        <lane id=":2094902699_2_0" index="0" disallow="tram rail_urban rail rail_electric ship" speed="3.65" length="2.34" shape="3721.63,590.38 3722.41,589.17 3723.21,588.76"/>
    </edge>
    <edge id=":2094902699_9" function="internal">
        <lane id=":2094902699_9_0" index="0" allow="delivery bicycle pedestrian" speed="7.11" length="5.09" shape="3723.10,585.87 3724.99,584.52 3727.66,583.79"/>
    </edge>
    <edge id=":2094902699_10" function="internal">
        <lane id=":2094902699_10_0" index="0" disallow="tram rail_urban rail rail_electric ship" speed="3.65" length="2.34" shape="3723.21,588.76 3724.01,589.15 3724.83,590.34"/>
    </edge>
    <edge id=":2094902699_3" function="internal">
        <lane id=":2094902699_3_0" index="0" disallow="tram rail_urban rail rail_electric ship" speed="5.36" length="5.23" shape="3728.11,586.96 3726.66,587.34 3725.63,588.04 3725.02,589.03 3724.83,590.34"/>
    </edge>
    <edge id=":2094902699_4" function="internal">
        <lane id=":2094902699_4_0" index="0" disallow="tram rail_urban rail rail_electric ship" speed="6.85" length="10.26" shape="3728.11,586.96 3725.29,586.95 3723.17,586.04 3721.74,584.23 3721.01,581.50"/>
    </edge>
    <edge id=":2094902699_5" function="internal">
        <lane id=":2094902699_5_0" index="0" allow="delivery bicycle pedestrian" speed="3.65" length="4.67" shape="3728.11,586.96 3726.81,586.33 3726.30,585.60 3726.59,584.75 3727.66,583.79"/>
    </edge>
    <edge id=":2094902699_6" function="internal">
        <lane id=":2094902699_6_0" index="0" allow="delivery bicycle pedestrian" speed="5.02" length="5.02" shape="3724.18,581.12 3724.54,582.45 3725.24,583.34 3726.28,583.79 3727.66,583.79"/>
    </edge>
    <edge id=":2094902699_7" function="internal">
        <lane id=":2094902699_7_0" index="0" disallow="tram rail_urban rail rail_electric ship" speed="22.22" length="9.25" shape="3724.18,581.12 3724.51,583.84 3724.69,585.71 3724.78,587.59 3724.83,590.34"/>
    </edge>
    <edge id=":2094902699_8" function="internal">
        <lane id=":2094902699_8_0" index="0" disallow="tram rail_urban rail rail_electric ship" speed="3.65" length="2.34" shape="3724.18,581.12 3723.53,582.41 3722.79,582.90"/>
    </edge>
    <edge id=":2094902699_11" function="internal">
        <lane id=":2094902699_11_0" index="0" disallow="tram rail_urban rail rail_electric ship" speed="3.65" length="2.34" shape="3722.79,582.90 3721.95,582.60 3721.01,581.50"/>
    </edge>
    <edge id=":2094902703_0" function="internal">
        <lane id=":2094902703_0_0" index="0" allow="delivery bicycle pedestrian" speed="5.56" length="9.56" shape="3755.10,583.58 3745.61,584.73"/>
    </edge>
    <edge id=":2094902703_1" function="internal">
        <lane id=":2094902703_1_0" index="0" allow="delivery bicycle pedestrian" speed="5.56" length="10.93" shape="3755.10,583.58 3752.04,583.54 3749.87,582.50 3748.60,580.46 3748.22,577.42"/>
    </edge>
    <edge id=":2094902703_2" function="internal">
        <lane id=":2094902703_2_0" index="0" allow="delivery bicycle pedestrian" speed="3.65" length="4.67" shape="3755.10,583.58 3753.80,582.94 3753.30,582.20 3753.60,581.36 3754.69,580.41"/>
    </edge>
    <edge id=":2094902703_3" function="internal">
        <lane id=":2094902703_3_0" index="0" allow="delivery bicycle pedestrian" speed="4.90" length="5.19" shape="3751.42,577.49 3751.60,578.93 3752.20,579.90 3753.23,580.39 3754.69,580.41"/>
    </edge>
    <edge id=":2094902703_4" function="internal">
        <lane id=":2094902703_4_0" index="0" allow="delivery bicycle pedestrian" speed="5.56" length="10.30" shape="3751.42,577.49 3751.01,580.42 3749.90,582.61 3748.10,584.04 3745.61,584.73"/>
    </edge>
    <edge id=":2094902703_5" function="internal">
        <lane id=":2094902703_5_0" index="0" allow="delivery bicycle pedestrian" speed="3.65" length="4.67" shape="3751.42,577.49 3750.60,578.67 3749.79,579.06 3749.00,578.64 3748.22,577.42"/>
    </edge>
    <edge id=":2094902703_6" function="internal">
        <lane id=":2094902703_6_0" index="0" allow="delivery bicycle pedestrian" speed="5.53" length="5.62" shape="3745.26,581.55 3746.53,581.17 3747.44,580.36 3748.01,579.11 3748.22,577.42"/>
    </edge>
    <edge id=":2094902703_7" function="internal">
        <lane id=":2094902703_7_0" index="0" allow="delivery bicycle pedestrian" speed="5.56" length="9.50" shape="3745.26,581.55 3754.69,580.41"/>
    </edge>
    <edge id=":2094902703_8" function="internal">