<?xml version="1.0" encoding="utf-8"?>
<additional xmlns:xsi="http://www.w3.org/2001/XMLSchema-instance" xsi:noNamespaceSchemaLocation="http://sumo.dlr.de/xsd/additional_file.xsd">
	<parkingArea id="parkingArea_gneE53_0_29" lane="gneE53_0" friendlyPos="1" roadsideCapacity="0" onRoad="1" startPos="33.15" endPos="53.15"></parkingArea>
	<parkingArea id="parkingArea_-gneE72_0_32" lane="-gneE72_0" friendlyPos="1" onRoad="1" startPos="215.57" endPos="235.57" roadsideCapacity="1"></parkingArea>
	<parkingArea id="parkingArea_-gneE58_0_27" lane="-gneE58_0" friendlyPos="1" onRoad="1" startPos="70.42" endPos="90.42" roadsideCapacity="1"></parkingArea>
	<parkingArea id="parkingArea_-gneE54_0_22" lane="-gneE54_0" friendlyPos="1" roadsideCapacity="1" onRoad="1" startPos="66.73" endPos="86.73"></parkingArea>
	<parkingArea id="parkingArea_-gneE38_0_20" lane="-gneE38_0" friendlyPos="1" onRoad="1" startPos="66.70" endPos="86.70" roadsideCapacity="2"></parkingArea>
	<parkingArea id="parkingArea_gneE55_0_12" lane="gneE55_0" friendlyPos="1" onRoad="1" startPos="65.08" endPos="85.08" roadsideCapacity="3"></parkingArea>
	<parkingArea id="parkingArea_-gneE9_0_67" lane="-gneE9_0" friendlyPos="1" onRoad="1" startPos="65.42" endPos="85.42" roadsideCapacity="0"></parkingArea>
	<parkingArea id="parkingArea_gneE23_0_59" lane="gneE23_0" friendlyPos="1" roadsideCapacity="2" onRoad="1" startPos="66.21" endPos="86.21"></parkingArea>
	<parkingArea id="parkingArea_gneE10_0_51" lane="gneE10_0" friendlyPos="1" roadsideCapacity="0" onRoad="1" startPos="33.02" endPos="53.02"></parkingArea>
	<parkingArea id="parkingArea_gneE93_0_99" lane="gneE93_0" friendlyPos="1" onRoad="1" startPos="76.15" endPos="96.15" roadsideCapacity="0"></parkingArea>
	<parkingArea id="parkingArea_-gneE97_0_95" lane="-gneE97_0" friendlyPos="1" roadsideCapacity="2" onRoad="1" startPos="62.61" endPos="82.61"></parkingArea>
	<parkingArea id="parkingArea_gneE0_0_1" lane="gneE0_0" friendlyPos="1" roadsideCapacity="3" onRoad="1" startPos="71.58" endPos="91.58"></parkingArea>
	<parkingArea id="parkingArea_gneE58_0_28" lane="gneE58_0" friendlyPos="1" roadsideCapacity="0" onRoad="1" startPos="69.77" endPos="89.77"></parkingArea>
	<parkingArea id="parkingArea_-gneE43_0_25" lane="-gneE43_0" friendlyPos="1" onRoad="1" startPos="69.15" endPos="89.15" roadsideCapacity="1"></parkingArea>
	<parkingArea id="parkingArea_gneE50_0_75" lane="gneE50_0" friendlyPos="1" roadsideCapacity="1" onRoad="1" startPos="67.15" endPos="87.15"></parkingArea>
	<parkingArea id="parkingArea_-gneE49_0_78" lane="-gneE49_0" friendlyPos="1" roadsideCapacity="1" onRoad="1" startPos="68.02" endPos="88.02"></parkingArea>
	<parkingArea id="parkingArea_-gneE61_0_85" lane="-gneE61_0" friendlyPos="1" onRoad="1" startPos="65.31" endPos="85.31" roadsideCapacity="0"></parkingArea>
	<parkingArea id="parkingArea_gneE24_0_100" lane="gneE24_0" friendlyPos="1" onRoad="1" startPos="70.02" endPos="80.02" roadsideCapacity="0"></parkingArea>
	<parkingArea id="parkingArea_gneE9_0_53" lane="gneE9_0" friendlyPos="1" roadsideCapacity="0" onRoad="1" startPos="65.14" endPos="85.14"></parkingArea>
	<parkingArea id="parkingArea_-gneE8_0_65" lane="-gneE8_0" friendlyPos="1" onRoad="1" startPos="66.32" endPos="86.32" roadsideCapacity="1"></parkingArea>
	<parkingArea id="parkingArea_gneE59_0_95" lane="gneE59_0" friendlyPos="1" roadsideCapacity="1" onRoad="1" startPos="70.84" endPos="90.84"></parkingArea>
	<parkingArea id="parkingArea_gneE45_0_90" lane="gneE45_0" friendlyPos="1" onRoad="1" startPos="70.38" endPos="90.38" roadsideCapacity="0"></parkingArea>
	<parkingArea id="parkingArea_-gneE47_0_86" lane="-gneE47_0" friendlyPos="1" roadsideCapacity="0" onRoad="1" startPos="68.68" endPos="88.68"></parkingArea>
	<parkingArea id="parkingArea_gneE48_0_82" lane="gneE48_0" friendlyPos="1" roadsideCapacity="1" onRoad="1" startPos="69.38" endPos="89.38"></parkingArea>
	<parkingArea id="parkingArea_gneE84_0_6" lane="gneE84_0" friendlyPos="1" roadsideCapacity="4" onRoad="1" startPos="70.17" endPos="90.17"></parkingArea>
	<parkingArea id="parkingArea_gneE83_0_4" lane="gneE83_0" friendlyPos="1" roadsideCapacity="1" onRoad="1" startPos="71.23" endPos="91.23"></parkingArea>
	<parkingArea id="parkingArea_-gneE71_0_34" lane="-gneE71_0" friendlyPos="1" onRoad="1" startPos="216.26" endPos="236.26" roadsideCapacity="0"></parkingArea>
	<parkingArea id="parkingArea_-gneE84_0_7" lane="-gneE84_0" friendlyPos="1" roadsideCapacity="1" onRoad="1" startPos="71.47" endPos="91.47"></parkingArea>
	<parkingArea id="parkingArea_gneE12_0_37" lane="gneE12_0" friendlyPos="1" roadsideCapacity="1" onRoad="1" startPos="32.84" endPos="52.84"></parkingArea>
	<parkingArea id="parkingArea_gneE90_0_97" lane="gneE90_0" friendlyPos="1" onRoad="1" startPos="76.41" endPos="96.41" roadsideCapacity="0"></parkingArea>
	<parkingArea id="parkingArea_-gneE23_0_54" lane="-gneE23_0" friendlyPos="1" onRoad="1" startPos="66.32" endPos="86.32" roadsideCapacity="1"></parkingArea>
	<parkingArea id="parkingArea_gneE5_0_60" lane="gneE5_0" friendlyPos="1" roadsideCapacity="0" onRoad="1" startPos="66.33" endPos="86.33"></parkingArea>
	<parkingArea id="parkingArea_-gneE4_0_56" lane="-gneE4_0" friendlyPos="1" roadsideCapacity="0" onRoad="1" startPos="70.44" endPos="90.44"></parkingArea>
	<parkingArea id="parkingArea_gneE57_0_23" lane="gneE57_0" friendlyPos="1" onRoad="1" startPos="66.19" endPos="86.19" roadsideCapacity="1"></parkingArea>
	<parkingArea id="parkingArea_-gneE42_0_18" lane="-gneE42_0" friendlyPos="1" onRoad="1" startPos="65.12" endPos="85.12" roadsideCapacity="0"></parkingArea>
	<parkingArea id="parkingArea_gneE43_0_26" lane="gneE43_0" friendlyPos="1" roadsideCapacity="0" onRoad="1" startPos="71.04" endPos="91.04"></parkingArea>
	<parkingArea id="parkingArea_-gneE53_0_30" lane="-gneE53_0" friendlyPos="1" onRoad="1" startPos="33.68" endPos="53.68" roadsideCapacity="1"></parkingArea>
	<parkingArea id="parkingArea_gneE54_0_21" lane="gneE54_0" friendlyPos="1" roadsideCapacity="1" onRoad="1" startPos="65.32" endPos="85.32"></parkingArea>
	<parkingArea id="parkingArea_-gneE57_0_24" lane="-gneE57_0" friendlyPos="1" roadsideCapacity="0" onRoad="1" startPos="65.76" endPos="85.76"></parkingArea>
	<parkingArea id="parkingArea_gneE72_0_31" lane="gneE72_0" friendlyPos="1" roadsideCapacity="1" onRoad="1" startPos="215.95" endPos="235.95"></parkingArea>
	<parkingArea id="parkingArea_gneE71_0_35" lane="gneE71_0" friendlyPos="1" roadsideCapacity="3" onRoad="1" startPos="216.21" endPos="236.21"></parkingArea>
	<parkingArea id="parkingArea_gneE70_0_9" lane="gneE70_0" friendlyPos="1" onRoad="1" startPos="63.33" endPos="83.33" roadsideCapacity="0"></parkingArea>
	<parkingArea id="parkingArea_-gneE81_0_70" lane="-gneE81_0" friendlyPos="1" roadsideCapacity="2" onRoad="1" startPos="599.26" endPos="619.26"></parkingArea>
	<parkingArea id="parkingArea_-gneE32_0_48" lane="-gneE32_0" friendlyPos="1" roadsideCapacity="0" onRoad="1" startPos="63.31" endPos="83.31"></parkingArea>
	<parkingArea id="parkingArea_gneE61_0_84" lane="gneE61_0" friendlyPos="1" onRoad="1" startPos="66.12" endPos="86.12" roadsideCapacity="1"></parkingArea>
	<parkingArea id="parkingArea_gneE47_0_87" lane="gneE47_0" friendlyPos="1" roadsideCapacity="2" onRoad="1" startPos="70.23" endPos="90.23"></parkingArea>
	<parkingArea id="parkingArea_-gneE46_0_89" lane="-gneE46_0" friendlyPos="1" roadsideCapacity="0" onRoad="1" startPos="65.27" endPos="85.27"></parkingArea>
	<parkingArea id="parkingArea_gneE60_0_94" lane="gneE60_0" friendlyPos="1" roadsideCapacity="2" onRoad="1" startPos="65.59" endPos="85.59"></parkingArea>
	<parkingArea id="parkingArea_-gneE45_0_91" lane="-gneE45_0" friendlyPos="1" roadsideCapacity="0" onRoad="1" startPos="67.20" endPos="87.20"></parkingArea>
	<parkingArea id="parkingArea_gneE46_0_88" lane="gneE46_0" friendlyPos="1" roadsideCapacity="1" onRoad="1" startPos="67.80" endPos="87.80"></parkingArea>
	<parkingArea id="parkingArea_gneE79_0_72" lane="gneE79_0" friendlyPos="1" onRoad="1" startPos="215.87" endPos="235.87" roadsideCapacity="1"></parkingArea>
	<parkingArea id="parkingArea_gneE81_0_33" lane="gneE81_0" friendlyPos="1" roadsideCapacity="1" onRoad="1" startPos="599.65" endPos="619.65"></parkingArea>
	<parkingArea id="parkingArea_gneE76_0_68" lane="gneE76_0" friendlyPos="1" onRoad="1" startPos="63.74" endPos="83.74" roadsideCapacity="0"></parkingArea>
	<parkingArea id="parkingArea_gneE78_0_79" lane="gneE78_0" friendlyPos="1" onRoad="1" startPos="65.61" endPos="85.61" roadsideCapacity="0"></parkingArea>
	<parkingArea id="parkingArea_gneE80_0_50" lane="gneE80_0" friendlyPos="1" roadsideCapacity="0" onRoad="1" startPos="215.66" endPos="235.66"></parkingArea>
	<parkingArea id="parkingArea_-gneE24_0_101" lane="-gneE24_0" friendlyPos="1" roadsideCapacity="0" onRoad="1" startPos="70.70" endPos="80.70"></parkingArea>
	<parkingArea id="parkingArea_-gneE5_0_58" lane="-gneE5_0" friendlyPos="1" roadsideCapacity="2" onRoad="1" startPos="66.96" endPos="86.96"></parkingArea>
	<parkingArea id="parkingArea_gneE6_0_62" lane="gneE6_0" friendlyPos="1" roadsideCapacity="1" onRoad="1" startPos="71.02" endPos="91.02"></parkingArea>
	<parkingArea id="parkingArea_gneE49_0_77" lane="gneE49_0" friendlyPos="1" roadsideCapacity="0" onRoad="1" startPos="65.88" endPos="85.88"></parkingArea>
	<parkingArea id="parkingArea_-gneE48_0_83" lane="-gneE48_0" friendlyPos="1" onRoad="1" startPos="68.48" endPos="88.48" roadsideCapacity="0"></parkingArea>
	<parkingArea id="parkingArea_-gneE78_0_80" lane="-gneE78_0" friendlyPos="1" onRoad="1" startPos="64.63" endPos="84.63" roadsideCapacity="2"></parkingArea>
	<parkingArea id="parkingArea_gneE92_0_98" lane="gneE92_0" friendlyPos="1" onRoad="1" startPos="78.78" endPos="98.78" roadsideCapacity="2"></parkingArea>
	<parkingArea id="parkingArea_gneE98_0_101" lane="gneE98_0" friendlyPos="1" startPos="64.04" endPos="84.04" roadsideCapacity="1" onRoad="1"></parkingArea>
	<parkingArea id="parkingArea_-gneE17_0_43" lane="-gneE17_0" friendlyPos="1" onRoad="1" startPos="64.77" endPos="84.77" roadsideCapacity="0"></parkingArea>
	<parkingArea id="parkingArea_-gneE0_0_0" lane="-gneE0_0" friendlyPos="1" roadsideCapacity="2" onRoad="1" startPos="70.37" endPos="90.37"></parkingArea>
	<parkingArea id="parkingArea_gneE39_0_17" lane="gneE39_0" friendlyPos="1" roadsideCapacity="1" onRoad="1" startPos="70.56" endPos="90.56"></parkingArea>
	<parkingArea id="parkingArea_-gneE37_0_11" lane="-gneE37_0" friendlyPos="1" onRoad="1" startPos="69.67" endPos="89.67" roadsideCapacity="1"></parkingArea>
	<parkingArea id="parkingArea_-gneE70_0_47" lane="-gneE70_0" friendlyPos="1" roadsideCapacity="1" onRoad="1" startPos="63.46" endPos="83.46"></parkingArea>
	<parkingArea id="parkingArea_-gneE14_0_40" lane="-gneE14_0" friendlyPos="1" roadsideCapacity="1" onRoad="1" startPos="63.97" endPos="83.97"></parkingArea>
	<parkingArea id="parkingArea_gneE97_0_94" lane="gneE97_0" friendlyPos="1" roadsideCapacity="3" onRoad="1" startPos="62.03" endPos="82.03"></parkingArea>
	<parkingArea id="parkingArea_gneE14_0_41" lane="gneE14_0" friendlyPos="1" roadsideCapacity="3" onRoad="1" startPos="65.18" endPos="85.18"></parkingArea>
	<parkingArea id="parkingArea_-gneE13_0_38" lane="-gneE13_0" friendlyPos="1" roadsideCapacity="0" onRoad="1" startPos="66.94" endPos="86.94"></parkingArea>
	<parkingArea id="parkingArea_gneE17_0_44" lane="gneE17_0" friendlyPos="1" onRoad="1" startPos="65.79" endPos="85.79" roadsideCapacity="2"></parkingArea>
	<parkingArea id="parkingArea_gneE8_0_66" lane="gneE8_0" friendlyPos="1" roadsideCapacity="0" onRoad="1" startPos="68.02" endPos="88.02"></parkingArea>
	<parkingArea id="parkingArea_-gneE76_0_81" lane="-gneE76_0" friendlyPos="1" roadsideCapacity="2" onRoad="1" startPos="62.39" endPos="82.39"></parkingArea>
	<parkingArea id="parkingArea_-gneE7_0_63" lane="-gneE7_0" friendlyPos="1" onRoad="1" startPos="70.76" endPos="90.76" roadsideCapacity="0"></parkingArea>
	<parkingArea id="parkingArea_gneE51_0_73" lane="gneE51_0" friendlyPos="1" roadsideCapacity="1" onRoad="1" startPos="32.99" endPos="52.99"></parkingArea>
	<parkingArea id="parkingArea_-gneE50_0_76" lane="-gneE50_0" friendlyPos="1" roadsideCapacity="2" onRoad="1" startPos="66.75" endPos="86.75"></parkingArea>
	<parkingArea id="parkingArea_-gneE60_0_93" lane="-gneE60_0" friendlyPos="1" onRoad="1" startPos="66.61" endPos="86.61" roadsideCapacity="2"></parkingArea>
	<parkingArea id="parkingArea_-gneE51_0_74" lane="-gneE51_0" friendlyPos="1" roadsideCapacity="2" onRoad="1" startPos="31.85" endPos="51.85"></parkingArea>
	<parkingArea id="parkingArea_-gneE59_0_92" lane="-gneE59_0" friendlyPos="1" onRoad="1" startPos="71.12" endPos="91.12" roadsideCapacity="0"></parkingArea>
	<parkingArea id="parkingArea_-gneE79_0_71" lane="-gneE79_0" friendlyPos="1" roadsideCapacity="1" onRoad="1" startPos="216.91" endPos="236.91"></parkingArea>
	<parkingArea id="parkingArea_-gneE83_0_5" lane="-gneE83_0" friendlyPos="1" roadsideCapacity="1" onRoad="1" startPos="71.44" endPos="91.44"></parkingArea>
	<parkingArea id="parkingArea_gneE82_0_46" lane="gneE82_0" friendlyPos="1" onRoad="1" startPos="66.60" endPos="86.60" roadsideCapacity="1"></parkingArea>
	<parkingArea id="parkingArea_-gneE98_0_100" lane="-gneE98_0" friendlyPos="1" startPos="63.80" endPos="83.80" roadsideCapacity="1" onRoad="1"></parkingArea>
	<parkingArea id="parkingArea_gneE88_0_96" lane="gneE88_0" friendlyPos="1" roadsideCapacity="1" onRoad="1" startPos="76.97" endPos="96.97"></parkingArea>
	<parkingArea id="parkingArea_gneE13_0_39" lane="gneE13_0" friendlyPos="1" onRoad="1" startPos="65.12" endPos="85.12" roadsideCapacity="1"></parkingArea>
	<parkingArea id="parkingArea_-gneE12_0_36" lane="-gneE12_0" friendlyPos="1" onRoad="1" startPos="32.86" endPos="52.86" roadsideCapacity="2"></parkingArea>
	<parkingArea id="parkingArea_-gneE82_0_45" lane="-gneE82_0" friendlyPos="1" roadsideCapacity="0" onRoad="1" startPos="64.53" endPos="84.53"></parkingArea>
	<parkingArea id="parkingArea_-gneE10_0_52" lane="-gneE10_0" friendlyPos="1" roadsideCapacity="3" onRoad="1" startPos="34.35" endPos="54.35"></parkingArea>
	<parkingArea id="parkingArea_-gneE80_0_69" lane="-gneE80_0" friendlyPos="1" roadsideCapacity="4" onRoad="1" startPos="214.80" endPos="234.80"></parkingArea>
	<parkingArea id="parkingArea_gneE21_0_55" lane="gneE21_0" friendlyPos="1" roadsideCapacity="1" onRoad="1" startPos="68.64" endPos="88.64"></parkingArea>
	<parkingArea id="parkingArea_-gneE55_0_13" lane="-gneE55_0" friendlyPos="1" roadsideCapacity="0" onRoad="1" startPos="65.94" endPos="85.94"></parkingArea>
	<parkingArea id="parkingArea_gneE37_0_15" lane="gneE37_0" friendlyPos="1" onRoad="1" startPos="69.90" endPos="89.90" roadsideCapacity="3"></parkingArea>
	<parkingArea id="parkingArea_gneE32_0_10" lane="gneE32_0" friendlyPos="1" onRoad="1" startPos="63.05" endPos="83.05" roadsideCapacity="0"></parkingArea>
	<parkingArea id="parkingArea_gneE7_0_64" lane="gneE7_0" friendlyPos="1" roadsideCapacity="0" onRoad="1" startPos="70.32" endPos="90.32"></parkingArea>
	<parkingArea id="parkingArea_-gneE6_0_61" lane="-gneE6_0" friendlyPos="1" onRoad="1" startPos="69.75" endPos="89.75" roadsideCapacity="1"></parkingArea>
	<parkingArea id="parkingArea_-gneE39_0_16" lane="-gneE39_0" friendlyPos="1" onRoad="1" startPos="68.08" endPos="88.08" roadsideCapacity="0"></parkingArea>
	<parkingArea id="parkingArea_gneE42_0_19" lane="gneE42_0" friendlyPos="1" roadsideCapacity="1" onRoad="1" startPos="67.25" endPos="87.25"></parkingArea>
	<parkingArea id="parkingArea_gneE38_0_14" lane="gneE38_0" friendlyPos="1" roadsideCapacity="0" onRoad="1" startPos="66.29" endPos="86.29"></parkingArea>
	<parkingArea id="parkingArea_gneE4_0_57" lane="gneE4_0" friendlyPos="1" roadsideCapacity="2" onRoad="1" startPos="71.09" endPos="91.09"></parkingArea>
	<parkingArea id="parkingArea_-gneE21_0_49" lane="-gneE21_0" friendlyPos="1" onRoad="1" startPos="68.65" endPos="88.65" roadsideCapacity="0"></parkingArea>
</additional>