<?xml version="1.0" encoding="UTF-8"?>

<!-- generated on Monday 03 June 2019 05:22:38 PM IST by Eclipse SUMO netedit Version 1.2.0
<configuration xmlns:xsi="http://www.w3.org/2001/XMLSchema-instance" xsi:noNamespaceSchemaLocation="http://sumo.dlr.de/xsd/netconvertConfiguration.xsd">

    <output>
        <output-file value="/home/tara/codes/aco/aco.net.xml"/>
        <plain-output-prefix value="/home/tara/codes/aco/aco"/>
    </output>

    <processing>
        <offset.disable-normalization value="true"/>
    </processing>

    <junctions>
        <no-turnarounds value="true"/>
    </junctions>

</configuration>
-->

<connections version="1.1" xmlns:xsi="http://www.w3.org/2001/XMLSchema-instance" xsi:noNamespaceSchemaLocation="http://sumo.dlr.de/xsd/connections_file.xsd">
    <connection from="gneE0" to="gneE1" fromLane="0" toLane="0"/>
    <connection from="gneE0" to="gneE5" fromLane="0" toLane="0"/>

    <connection from="gneE1" to="gneE2" fromLane="0" toLane="0"/>

    <connection from="gneE10" to="gneE11" fromLane="0" toLane="0"/>

    <connection from="gneE11" to="gneE12" fromLane="0" toLane="0"/>

    <connection from="gneE12" to="gneE13" fromLane="0" toLane="0"/>

    <connection from="gneE2" to="gneE3" fromLane="0" toLane="0"/>

    <connection from="gneE3" to="gneE8" fromLane="0" toLane="0"/>
    <connection from="gneE3" to="gneE4" fromLane="0" toLane="0"/>

    <connection from="gneE4" to="gneE5" fromLane="0" toLane="0"/>
    <connection from="gneE4" to="gneE1" fromLane="0" toLane="0"/>

    <connection from="gneE5" to="gneE6" fromLane="0" toLane="0"/>

    <connection from="gneE6" to="gneE7" fromLane="0" toLane="0"/>

    <connection from="gneE7" to="gneE4" fromLane="0" toLane="0"/>
    <connection from="gneE7" to="gneE8" fromLane="0" toLane="0"/>

    <connection from="gneE8" to="gneE9" fromLane="0" toLane="0"/>

    <connection from="gneE9" to="gneE10" fromLane="0" toLane="0"/>

</connections>
