<?xml version="1.0" encoding="UTF-8"?>

<!-- generated on Wednesday 26 June 2019 01:18:51 AM IST by Eclipse SUMO netedit Version 1.2.0
<configuration xmlns:xsi="http://www.w3.org/2001/XMLSchema-instance" xsi:noNamespaceSchemaLocation="http://sumo.dlr.de/xsd/netconvertConfiguration.xsd">

    <input>
        <sumo-net-file value="/home/tara/codes/aco/networks/distance/distance.net.xml"/>
    </input>

    <output>
        <output-file value="/home/tara/codes/aco/networks/distance/distance.net.xml"/>
    </output>

    <processing>
        <geometry.max-grade.fix value="false"/>
        <offset.disable-normalization value="true"/>
        <lefthand value="false"/>
    </processing>

    <junctions>
        <no-turnarounds value="true"/>
        <junctions.corner-detail value="5"/>
        <junctions.limit-turn-speed value="5.5"/>
        <rectangular-lane-cut value="false"/>
    </junctions>

    <pedestrian>
        <walkingareas value="false"/>
    </pedestrian>

</configuration>
-->

<net version="1.1" junctionCornerDetail="5" limitTurnSpeed="5.50" xmlns:xsi="http://www.w3.org/2001/XMLSchema-instance" xsi:noNamespaceSchemaLocation="http://sumo.dlr.de/xsd/net_file.xsd">

    <location netOffset="0.00,0.00" convBoundary="-200.00,-200.00,300.00,300.00" origBoundary="-10000000000.00,-10000000000.00,10000000000.00,10000000000.00" projParameter="!"/>

    <edge id=":gneJ0_0" function="internal">
        <lane id=":gneJ0_0_0" index="0" speed="6.08" length="7.74" shape="-196.80,301.60 -198.90,301.30 -200.40,300.40 -201.30,298.90 -201.60,296.80"/>
    </edge>
    <edge id=":gneJ0_1" function="internal">
        <lane id=":gneJ0_1_0" index="0" speed="3.90" length="2.58" shape="-198.40,296.80 -198.30,297.50 -198.00,298.00 -197.50,298.30 -196.80,298.40"/>
    </edge>
    <edge id=":gneJ1_0" function="internal">
        <lane id=":gneJ1_0_0" index="0" speed="13.89" length="14.40" shape="-92.80,301.60 -107.20,301.60"/>
    </edge>
    <edge id=":gneJ1_1" function="internal">
        <lane id=":gneJ1_1_0" index="0" speed="8.00" length="5.93" shape="-92.80,301.60 -96.65,301.05 -98.40,300.00"/>
    </edge>
    <edge id=":gneJ1_6" function="internal">
        <lane id=":gneJ1_6_0" index="0" speed="8.00" length="8.26" shape="-98.40,300.00 -99.40,299.40 -101.05,296.65 -101.60,292.80"/>
    </edge>
    <edge id=":gneJ1_2" function="internal">
        <lane id=":gneJ1_2_0" index="0" speed="6.51" length="9.03" shape="-98.40,292.80 -98.05,295.25 -97.00,297.00 -95.25,298.05 -92.80,298.40"/>
    </edge>
    <edge id=":gneJ1_3" function="internal">
        <lane id=":gneJ1_3_0" index="0" speed="8.00" length="14.19" shape="-98.40,292.80 -98.95,296.65 -100.60,299.40 -103.35,301.05 -107.20,301.60"/>
    </edge>
    <edge id=":gneJ1_4" function="internal">
        <lane id=":gneJ1_4_0" index="0" speed="6.51" length="9.03" shape="-107.20,298.40 -104.75,298.05 -103.00,297.00 -101.95,295.25 -101.60,292.80"/>
    </edge>
    <edge id=":gneJ1_5" function="internal">
        <lane id=":gneJ1_5_0" index="0" speed="13.89" length="14.40" shape="-107.20,298.40 -92.80,298.40"/>
    </edge>
    <edge id=":gneJ10_0" function="internal">
        <lane id=":gneJ10_0_0" index="0" speed="3.90" length="2.58" shape="298.40,-196.80 298.30,-197.50 298.00,-198.00 297.50,-198.30 296.80,-198.40"/>
    </edge>
    <edge id=":gneJ10_1" function="internal">
        <lane id=":gneJ10_1_0" index="0" speed="6.08" length="7.74" shape="296.80,-201.60 298.90,-201.30 300.40,-200.40 301.30,-198.90 301.60,-196.80"/>
    </edge>
    <edge id=":gneJ12_0" function="internal">
        <lane id=":gneJ12_0_0" index="0" speed="6.08" length="7.74" shape="98.40,-196.80 98.70,-198.90 99.60,-200.40 101.10,-201.30 103.20,-201.60"/>
    </edge>
    <edge id=":gneJ12_1" function="internal">
        <lane id=":gneJ12_1_0" index="0" speed="3.90" length="2.58" shape="103.20,-198.40 102.50,-198.30 102.00,-198.00 101.70,-197.50 101.60,-196.80"/>
    </edge>
    <edge id=":gneJ14_0" function="internal">
        <lane id=":gneJ14_0_0" index="0" speed="3.90" length="2.58" shape="-101.60,-196.80 -101.70,-197.50 -102.00,-198.00 -102.50,-198.30 -103.20,-198.40"/>
    </edge>
    <edge id=":gneJ14_1" function="internal">
        <lane id=":gneJ14_1_0" index="0" speed="6.08" length="7.74" shape="-103.20,-201.60 -101.10,-201.30 -99.60,-200.40 -98.70,-198.90 -98.40,-196.80"/>
    </edge>
    <edge id=":gneJ15_0" function="internal">
        <lane id=":gneJ15_0_0" index="0" speed="6.08" length="7.74" shape="-201.60,-196.80 -201.30,-198.90 -200.40,-200.40 -198.90,-201.30 -196.80,-201.60"/>
    </edge>
    <edge id=":gneJ15_1" function="internal">
        <lane id=":gneJ15_1_0" index="0" speed="3.90" length="2.58" shape="-196.80,-198.40 -197.50,-198.30 -198.00,-198.00 -198.30,-197.50 -198.40,-196.80"/>
    </edge>
    <edge id=":gneJ16_0" function="internal">
        <lane id=":gneJ16_0_0" index="0" speed="6.08" length="7.74" shape="-196.80,-98.40 -198.90,-98.70 -200.40,-99.60 -201.30,-101.10 -201.60,-103.20"/>
    </edge>
    <edge id=":gneJ16_1" function="internal">
        <lane id=":gneJ16_1_0" index="0" speed="3.90" length="2.58" shape="-198.40,-103.20 -198.30,-102.50 -198.00,-102.00 -197.50,-101.70 -196.80,-101.60"/>
    </edge>
    <edge id=":gneJ19_0" function="internal">
        <lane id=":gneJ19_0_0" index="0" speed="13.89" length="14.40" shape="-201.60,207.20 -201.60,192.80"/>
    </edge>
    <edge id=":gneJ19_1" function="internal">
        <lane id=":gneJ19_1_0" index="0" speed="8.00" length="5.93" shape="-201.60,207.20 -201.05,203.35 -200.00,201.60"/>
    </edge>
    <edge id=":gneJ19_6" function="internal">
        <lane id=":gneJ19_6_0" index="0" speed="8.00" length="8.26" shape="-200.00,201.60 -199.40,200.60 -196.65,198.95 -192.80,198.40"/>
    </edge>
    <edge id=":gneJ19_2" function="internal">
        <lane id=":gneJ19_2_0" index="0" speed="6.51" length="9.03" shape="-192.80,201.60 -195.25,201.95 -197.00,203.00 -198.05,204.75 -198.40,207.20"/>
    </edge>
    <edge id=":gneJ19_3" function="internal">
        <lane id=":gneJ19_3_0" index="0" speed="8.00" length="14.19" shape="-192.80,201.60 -196.65,201.05 -199.40,199.40 -201.05,196.65 -201.60,192.80"/>
    </edge>
    <edge id=":gneJ19_4" function="internal">
        <lane id=":gneJ19_4_0" index="0" speed="6.51" length="9.03" shape="-198.40,192.80 -198.05,195.25 -197.00,197.00 -195.25,198.05 -192.80,198.40"/>
    </edge>
    <edge id=":gneJ19_5" function="internal">
        <lane id=":gneJ19_5_0" index="0" speed="13.89" length="14.40" shape="-198.40,192.80 -198.40,207.20"/>
    </edge>
    <edge id=":gneJ2_0" function="internal">
        <lane id=":gneJ2_0_0" index="0" speed="13.89" length="14.40" shape="7.20,301.60 -7.20,301.60"/>
    </edge>
    <edge id=":gneJ2_1" function="internal">
        <lane id=":gneJ2_1_0" index="0" speed="8.00" length="5.93" shape="7.20,301.60 3.35,301.05 1.60,300.00"/>
    </edge>
    <edge id=":gneJ2_6" function="internal">
        <lane id=":gneJ2_6_0" index="0" speed="8.00" length="8.26" shape="1.60,300.00 0.60,299.40 -1.05,296.65 -1.60,292.80"/>
    </edge>
    <edge id=":gneJ2_2" function="internal">
        <lane id=":gneJ2_2_0" index="0" speed="6.51" length="9.03" shape="1.60,292.80 1.95,295.25 3.00,297.00 4.75,298.05 7.20,298.40"/>
    </edge>
    <edge id=":gneJ2_3" function="internal">
        <lane id=":gneJ2_3_0" index="0" speed="8.00" length="14.19" shape="1.60,292.80 1.05,296.65 -0.60,299.40 -3.35,301.05 -7.20,301.60"/>
    </edge>
    <edge id=":gneJ2_4" function="internal">
        <lane id=":gneJ2_4_0" index="0" speed="6.51" length="9.03" shape="-7.20,298.40 -4.75,298.05 -3.00,297.00 -1.95,295.25 -1.60,292.80"/>
    </edge>
    <edge id=":gneJ2_5" function="internal">
        <lane id=":gneJ2_5_0" index="0" speed="13.89" length="14.40" shape="-7.20,298.40 7.20,298.40"/>
    </edge>
    <edge id=":gneJ20_0" function="internal">
        <lane id=":gneJ20_0_0" index="0" speed="6.51" length="9.03" shape="-101.60,-92.80 -101.95,-95.25 -103.00,-97.00 -104.75,-98.05 -107.20,-98.40"/>
    </edge>
    <edge id=":gneJ20_1" function="internal">
        <lane id=":gneJ20_1_0" index="0" speed="13.89" length="14.40" shape="-101.60,-92.80 -101.60,-107.20"/>
    </edge>
    <edge id=":gneJ20_2" function="internal">
        <lane id=":gneJ20_2_0" index="0" speed="8.00" length="5.93" shape="-101.60,-92.80 -101.05,-96.65 -100.00,-98.40"/>
    </edge>
    <edge id=":gneJ20_12" function="internal">
        <lane id=":gneJ20_12_0" index="0" speed="8.00" length="8.26" shape="-100.00,-98.40 -99.40,-99.40 -96.65,-101.05 -92.80,-101.60"/>
    </edge>
    <edge id=":gneJ20_3" function="internal">
        <lane id=":gneJ20_3_0" index="0" speed="6.51" length="9.03" shape="-92.80,-98.40 -95.25,-98.05 -97.00,-97.00 -98.05,-95.25 -98.40,-92.80"/>
    </edge>
    <edge id=":gneJ20_4" function="internal">
        <lane id=":gneJ20_4_0" index="0" speed="13.89" length="14.40" shape="-92.80,-98.40 -107.20,-98.40"/>
    </edge>
    <edge id=":gneJ20_5" function="internal">
        <lane id=":gneJ20_5_0" index="0" speed="8.00" length="14.19" shape="-92.80,-98.40 -96.65,-98.95 -99.40,-100.60 -101.05,-103.35 -101.60,-107.20"/>
    </edge>
    <edge id=":gneJ20_6" function="internal">
        <lane id=":gneJ20_6_0" index="0" speed="6.51" length="9.03" shape="-98.40,-107.20 -98.05,-104.75 -97.00,-103.00 -95.25,-101.95 -92.80,-101.60"/>
    </edge>
    <edge id=":gneJ20_7" function="internal">
        <lane id=":gneJ20_7_0" index="0" speed="13.89" length="14.40" shape="-98.40,-107.20 -98.40,-92.80"/>
    </edge>
    <edge id=":gneJ20_8" function="internal">
        <lane id=":gneJ20_8_0" index="0" speed="8.00" length="5.93" shape="-98.40,-107.20 -98.95,-103.35 -100.00,-101.60"/>
    </edge>
    <edge id=":gneJ20_13" function="internal">
        <lane id=":gneJ20_13_0" index="0" speed="8.00" length="8.26" shape="-100.00,-101.60 -100.60,-100.60 -103.35,-98.95 -107.20,-98.40"/>
    </edge>
    <edge id=":gneJ20_9" function="internal">
        <lane id=":gneJ20_9_0" index="0" speed="6.51" length="9.03" shape="-107.20,-101.60 -104.75,-101.95 -103.00,-103.00 -101.95,-104.75 -101.60,-107.20"/>
    </edge>
    <edge id=":gneJ20_10" function="internal">
        <lane id=":gneJ20_10_0" index="0" speed="13.89" length="14.40" shape="-107.20,-101.60 -92.80,-101.60"/>
    </edge>
    <edge id=":gneJ20_11" function="internal">
        <lane id=":gneJ20_11_0" index="0" speed="8.00" length="14.19" shape="-107.20,-101.60 -103.35,-101.05 -100.60,-99.40 -98.95,-96.65 -98.40,-92.80"/>
    </edge>
    <edge id=":gneJ21_0" function="internal">
        <lane id=":gneJ21_0_0" index="0" speed="6.08" length="7.74" shape="-96.80,1.60 -98.90,1.30 -100.40,0.40 -101.30,-1.10 -101.60,-3.20"/>
    </edge>
    <edge id=":gneJ21_1" function="internal">
        <lane id=":gneJ21_1_0" index="0" speed="3.90" length="2.58" shape="-98.40,-3.20 -98.30,-2.50 -98.00,-2.00 -97.50,-1.70 -96.80,-1.60"/>
    </edge>
    <edge id=":gneJ22_0" function="internal">
        <lane id=":gneJ22_0_0" index="0" speed="3.90" length="2.58" shape="-101.60,103.20 -101.70,102.50 -102.00,102.00 -102.50,101.70 -103.20,101.60"/>
    </edge>
    <edge id=":gneJ22_1" function="internal">
        <lane id=":gneJ22_1_0" index="0" speed="6.08" length="7.74" shape="-103.20,98.40 -101.10,98.70 -99.60,99.60 -98.70,101.10 -98.40,103.20"/>
    </edge>
    <edge id=":gneJ23_0" function="internal">
        <lane id=":gneJ23_0_0" index="0" speed="6.51" length="9.03" shape="-101.60,207.20 -101.95,204.75 -103.00,203.00 -104.75,201.95 -107.20,201.60"/>
    </edge>
    <edge id=":gneJ23_1" function="internal">
        <lane id=":gneJ23_1_0" index="0" speed="13.89" length="14.40" shape="-101.60,207.20 -101.60,192.80"/>
    </edge>
    <edge id=":gneJ23_2" function="internal">
        <lane id=":gneJ23_2_0" index="0" speed="8.00" length="5.93" shape="-101.60,207.20 -101.05,203.35 -100.00,201.60"/>
    </edge>
    <edge id=":gneJ23_12" function="internal">
        <lane id=":gneJ23_12_0" index="0" speed="8.00" length="8.26" shape="-100.00,201.60 -99.40,200.60 -96.65,198.95 -92.80,198.40"/>
    </edge>
    <edge id=":gneJ23_3" function="internal">
        <lane id=":gneJ23_3_0" index="0" speed="6.51" length="9.03" shape="-92.80,201.60 -95.25,201.95 -97.00,203.00 -98.05,204.75 -98.40,207.20"/>
    </edge>
    <edge id=":gneJ23_4" function="internal">
        <lane id=":gneJ23_4_0" index="0" speed="13.89" length="14.40" shape="-92.80,201.60 -107.20,201.60"/>
    </edge>
    <edge id=":gneJ23_5" function="internal">
        <lane id=":gneJ23_5_0" index="0" speed="8.00" length="14.19" shape="-92.80,201.60 -96.65,201.05 -99.40,199.40 -101.05,196.65 -101.60,192.80"/>
    </edge>
    <edge id=":gneJ23_6" function="internal">
        <lane id=":gneJ23_6_0" index="0" speed="6.51" length="9.03" shape="-98.40,192.80 -98.05,195.25 -97.00,197.00 -95.25,198.05 -92.80,198.40"/>
    </edge>
    <edge id=":gneJ23_7" function="internal">
        <lane id=":gneJ23_7_0" index="0" speed="13.89" length="14.40" shape="-98.40,192.80 -98.40,207.20"/>
    </edge>
    <edge id=":gneJ23_8" function="internal">
        <lane id=":gneJ23_8_0" index="0" speed="8.00" length="5.93" shape="-98.40,192.80 -98.95,196.65 -100.00,198.40"/>
    </edge>
    <edge id=":gneJ23_13" function="internal">
        <lane id=":gneJ23_13_0" index="0" speed="8.00" length="8.26" shape="-100.00,198.40 -100.60,199.40 -103.35,201.05 -107.20,201.60"/>
    </edge>
    <edge id=":gneJ23_9" function="internal">
        <lane id=":gneJ23_9_0" index="0" speed="6.51" length="9.03" shape="-107.20,198.40 -104.75,198.05 -103.00,197.00 -101.95,195.25 -101.60,192.80"/>
    </edge>
    <edge id=":gneJ23_10" function="internal">
        <lane id=":gneJ23_10_0" index="0" speed="13.89" length="14.40" shape="-107.20,198.40 -92.80,198.40"/>
    </edge>
    <edge id=":gneJ23_11" function="internal">
        <lane id=":gneJ23_11_0" index="0" speed="8.00" length="14.19" shape="-107.20,198.40 -103.35,198.95 -100.60,200.60 -98.95,203.35 -98.40,207.20"/>
    </edge>
    <edge id=":gneJ24_0" function="internal">
        <lane id=":gneJ24_0_0" index="0" speed="3.90" length="2.58" shape="-1.60,-96.80 -1.70,-97.50 -2.00,-98.00 -2.50,-98.30 -3.20,-98.40"/>
    </edge>
    <edge id=":gneJ24_1" function="internal">
        <lane id=":gneJ24_1_0" index="0" speed="6.08" length="7.74" shape="-3.20,-101.60 -1.10,-101.30 0.40,-100.40 1.30,-98.90 1.60,-96.80"/>
    </edge>
    <edge id=":gneJ25_0" function="internal">
        <lane id=":gneJ25_0_0" index="0" speed="13.89" length="0.10" shape="-1.60,0.00 -1.60,0.00"/>
    </edge>
    <edge id=":gneJ25_1" function="internal">
        <lane id=":gneJ25_1_0" index="0" speed="13.89" length="0.10" shape="1.60,0.00 1.60,0.00"/>
    </edge>
    <edge id=":gneJ26_0" function="internal">
        <lane id=":gneJ26_0_0" index="0" speed="6.08" length="7.74" shape="3.20,101.60 1.10,101.30 -0.40,100.40 -1.30,98.90 -1.60,96.80"/>
    </edge>
    <edge id=":gneJ26_1" function="internal">
        <lane id=":gneJ26_1_0" index="0" speed="3.90" length="2.58" shape="1.60,96.80 1.70,97.50 2.00,98.00 2.50,98.30 3.20,98.40"/>
    </edge>
    <edge id=":gneJ27_0" function="internal">
        <lane id=":gneJ27_0_0" index="0" speed="3.90" length="2.58" shape="-1.60,203.20 -1.70,202.50 -2.00,202.00 -2.50,201.70 -3.20,201.60"/>
    </edge>
    <edge id=":gneJ27_1" function="internal">
        <lane id=":gneJ27_1_0" index="0" speed="6.08" length="7.74" shape="-3.20,198.40 -1.10,198.70 0.40,199.60 1.30,201.10 1.60,203.20"/>
    </edge>
    <edge id=":gneJ28_0" function="internal">
        <lane id=":gneJ28_0_0" index="0" speed="6.08" length="7.74" shape="103.20,-98.40 101.10,-98.70 99.60,-99.60 98.70,-101.10 98.40,-103.20"/>
    </edge>
    <edge id=":gneJ28_1" function="internal">
        <lane id=":gneJ28_1_0" index="0" speed="3.90" length="2.58" shape="101.60,-103.20 101.70,-102.50 102.00,-102.00 102.50,-101.70 103.20,-101.60"/>
    </edge>
    <edge id=":gneJ29_0" function="internal">
        <lane id=":gneJ29_0_0" index="0" speed="3.90" length="2.58" shape="98.40,3.20 98.30,2.50 98.00,2.00 97.50,1.70 96.80,1.60"/>
    </edge>
    <edge id=":gneJ29_1" function="internal">
        <lane id=":gneJ29_1_0" index="0" speed="6.08" length="7.74" shape="96.80,-1.60 98.90,-1.30 100.40,-0.40 101.30,1.10 101.60,3.20"/>
    </edge>
    <edge id=":gneJ30_0" function="internal">
        <lane id=":gneJ30_0_0" index="0" speed="6.51" length="9.03" shape="98.40,107.20 98.05,104.75 97.00,103.00 95.25,101.95 92.80,101.60"/>
    </edge>
    <edge id=":gneJ30_1" function="internal">
        <lane id=":gneJ30_1_0" index="0" speed="13.89" length="14.40" shape="98.40,107.20 98.40,92.80"/>
    </edge>
    <edge id=":gneJ30_2" function="internal">
        <lane id=":gneJ30_2_0" index="0" speed="8.00" length="5.93" shape="98.40,107.20 98.95,103.35 100.00,101.60"/>
    </edge>
    <edge id=":gneJ30_12" function="internal">
        <lane id=":gneJ30_12_0" index="0" speed="8.00" length="8.26" shape="100.00,101.60 100.60,100.60 103.35,98.95 107.20,98.40"/>
    </edge>
    <edge id=":gneJ30_3" function="internal">
        <lane id=":gneJ30_3_0" index="0" speed="6.51" length="9.03" shape="107.20,101.60 104.75,101.95 103.00,103.00 101.95,104.75 101.60,107.20"/>
    </edge>
    <edge id=":gneJ30_4" function="internal">
        <lane id=":gneJ30_4_0" index="0" speed="13.89" length="14.40" shape="107.20,101.60 92.80,101.60"/>
    </edge>
    <edge id=":gneJ30_5" function="internal">
        <lane id=":gneJ30_5_0" index="0" speed="8.00" length="14.19" shape="107.20,101.60 103.35,101.05 100.60,99.40 98.95,96.65 98.40,92.80"/>
    </edge>
    <edge id=":gneJ30_6" function="internal">
        <lane id=":gneJ30_6_0" index="0" speed="6.51" length="9.03" shape="101.60,92.80 101.95,95.25 103.00,97.00 104.75,98.05 107.20,98.40"/>
    </edge>
    <edge id=":gneJ30_7" function="internal">
        <lane id=":gneJ30_7_0" index="0" speed="13.89" length="14.40" shape="101.60,92.80 101.60,107.20"/>
    </edge>
    <edge id=":gneJ30_8" function="internal">
        <lane id=":gneJ30_8_0" index="0" speed="8.00" length="5.93" shape="101.60,92.80 101.05,96.65 100.00,98.40"/>
    </edge>
    <edge id=":gneJ30_13" function="internal">
        <lane id=":gneJ30_13_0" index="0" speed="8.00" length="8.26" shape="100.00,98.40 99.40,99.40 96.65,101.05 92.80,101.60"/>
    </edge>
    <edge id=":gneJ30_9" function="internal">
        <lane id=":gneJ30_9_0" index="0" speed="6.51" length="9.03" shape="92.80,98.40 95.25,98.05 97.00,97.00 98.05,95.25 98.40,92.80"/>
    </edge>
    <edge id=":gneJ30_10" function="internal">
        <lane id=":gneJ30_10_0" index="0" speed="13.89" length="14.40" shape="92.80,98.40 107.20,98.40"/>
    </edge>
    <edge id=":gneJ30_11" function="internal">
        <lane id=":gneJ30_11_0" index="0" speed="8.00" length="14.19" shape="92.80,98.40 96.65,98.95 99.40,100.60 101.05,103.35 101.60,107.20"/>
    </edge>
    <edge id=":gneJ31_0" function="internal">
        <lane id=":gneJ31_0_0" index="0" speed="6.08" length="7.74" shape="103.20,201.60 101.10,201.30 99.60,200.40 98.70,198.90 98.40,196.80"/>
    </edge>
    <edge id=":gneJ31_1" function="internal">
        <lane id=":gneJ31_1_0" index="0" speed="3.90" length="2.58" shape="101.60,196.80 101.70,197.50 102.00,198.00 102.50,198.30 103.20,198.40"/>
    </edge>
    <edge id=":gneJ34_0" function="internal">
        <lane id=":gneJ34_0_0" index="0" speed="6.51" length="9.03" shape="198.40,-92.80 198.05,-95.25 197.00,-97.00 195.25,-98.05 192.80,-98.40"/>
    </edge>
    <edge id=":gneJ34_1" function="internal">
        <lane id=":gneJ34_1_0" index="0" speed="13.89" length="14.40" shape="198.40,-92.80 198.40,-107.20"/>
    </edge>
    <edge id=":gneJ34_2" function="internal">
        <lane id=":gneJ34_2_0" index="0" speed="8.00" length="5.93" shape="198.40,-92.80 198.95,-96.65 200.00,-98.40"/>
    </edge>
    <edge id=":gneJ34_12" function="internal">
        <lane id=":gneJ34_12_0" index="0" speed="8.00" length="8.26" shape="200.00,-98.40 200.60,-99.40 203.35,-101.05 207.20,-101.60"/>
    </edge>
    <edge id=":gneJ34_3" function="internal">
        <lane id=":gneJ34_3_0" index="0" speed="6.51" length="9.03" shape="207.20,-98.40 204.75,-98.05 203.00,-97.00 201.95,-95.25 201.60,-92.80"/>
    </edge>
    <edge id=":gneJ34_4" function="internal">
        <lane id=":gneJ34_4_0" index="0" speed="13.89" length="14.40" shape="207.20,-98.40 192.80,-98.40"/>
    </edge>
    <edge id=":gneJ34_5" function="internal">
        <lane id=":gneJ34_5_0" index="0" speed="8.00" length="14.19" shape="207.20,-98.40 203.35,-98.95 200.60,-100.60 198.95,-103.35 198.40,-107.20"/>
    </edge>
    <edge id=":gneJ34_6" function="internal">
        <lane id=":gneJ34_6_0" index="0" speed="6.51" length="9.03" shape="201.60,-107.20 201.95,-104.75 203.00,-103.00 204.75,-101.95 207.20,-101.60"/>
    </edge>
    <edge id=":gneJ34_7" function="internal">
        <lane id=":gneJ34_7_0" index="0" speed="13.89" length="14.40" shape="201.60,-107.20 201.60,-92.80"/>
    </edge>
    <edge id=":gneJ34_8" function="internal">
        <lane id=":gneJ34_8_0" index="0" speed="8.00" length="5.93" shape="201.60,-107.20 201.05,-103.35 200.00,-101.60"/>
    </edge>
    <edge id=":gneJ34_13" function="internal">
        <lane id=":gneJ34_13_0" index="0" speed="8.00" length="8.26" shape="200.00,-101.60 199.40,-100.60 196.65,-98.95 192.80,-98.40"/>
    </edge>
    <edge id=":gneJ34_9" function="internal">
        <lane id=":gneJ34_9_0" index="0" speed="6.51" length="9.03" shape="192.80,-101.60 195.25,-101.95 197.00,-103.00 198.05,-104.75 198.40,-107.20"/>
    </edge>
    <edge id=":gneJ34_10" function="internal">
        <lane id=":gneJ34_10_0" index="0" speed="13.89" length="14.40" shape="192.80,-101.60 207.20,-101.60"/>
    </edge>
    <edge id=":gneJ34_11" function="internal">
        <lane id=":gneJ34_11_0" index="0" speed="8.00" length="14.19" shape="192.80,-101.60 196.65,-101.05 199.40,-99.40 201.05,-96.65 201.60,-92.80"/>
    </edge>
    <edge id=":gneJ35_0" function="internal">
        <lane id=":gneJ35_0_0" index="0" speed="6.08" length="7.74" shape="203.20,1.60 201.10,1.30 199.60,0.40 198.70,-1.10 198.40,-3.20"/>
    </edge>
    <edge id=":gneJ35_1" function="internal">
        <lane id=":gneJ35_1_0" index="0" speed="3.90" length="2.58" shape="201.60,-3.20 201.70,-2.50 202.00,-2.00 202.50,-1.70 203.20,-1.60"/>
    </edge>
    <edge id=":gneJ36_0" function="internal">
        <lane id=":gneJ36_0_0" index="0" speed="3.90" length="2.58" shape="198.40,103.20 198.30,102.50 198.00,102.00 197.50,101.70 196.80,101.60"/>
    </edge>
    <edge id=":gneJ36_1" function="internal">
        <lane id=":gneJ36_1_0" index="0" speed="6.08" length="7.74" shape="196.80,98.40 198.90,98.70 200.40,99.60 201.30,101.10 201.60,103.20"/>
    </edge>
    <edge id=":gneJ37_0" function="internal">
        <lane id=":gneJ37_0_0" index="0" speed="6.51" length="9.03" shape="198.40,207.20 198.05,204.75 197.00,203.00 195.25,201.95 192.80,201.60"/>
    </edge>
    <edge id=":gneJ37_1" function="internal">
        <lane id=":gneJ37_1_0" index="0" speed="13.89" length="14.40" shape="198.40,207.20 198.40,192.80"/>
    </edge>
    <edge id=":gneJ37_2" function="internal">
        <lane id=":gneJ37_2_0" index="0" speed="8.00" length="5.93" shape="198.40,207.20 198.95,203.35 200.00,201.60"/>
    </edge>
    <edge id=":gneJ37_12" function="internal">
        <lane id=":gneJ37_12_0" index="0" speed="8.00" length="8.26" shape="200.00,201.60 200.60,200.60 203.35,198.95 207.20,198.40"/>
    </edge>
    <edge id=":gneJ37_3" function="internal">
        <lane id=":gneJ37_3_0" index="0" speed="6.51" length="9.03" shape="207.20,201.60 204.75,201.95 203.00,203.00 201.95,204.75 201.60,207.20"/>
    </edge>
    <edge id=":gneJ37_4" function="internal">
        <lane id=":gneJ37_4_0" index="0" speed="13.89" length="14.40" shape="207.20,201.60 192.80,201.60"/>
    </edge>
    <edge id=":gneJ37_5" function="internal">
        <lane id=":gneJ37_5_0" index="0" speed="8.00" length="14.19" shape="207.20,201.60 203.35,201.05 200.60,199.40 198.95,196.65 198.40,192.80"/>
    </edge>
    <edge id=":gneJ37_6" function="internal">
        <lane id=":gneJ37_6_0" index="0" speed="6.51" length="9.03" shape="201.60,192.80 201.95,195.25 203.00,197.00 204.75,198.05 207.20,198.40"/>
    </edge>
    <edge id=":gneJ37_7" function="internal">
        <lane id=":gneJ37_7_0" index="0" speed="13.89" length="14.40" shape="201.60,192.80 201.60,207.20"/>
    </edge>
    <edge id=":gneJ37_8" function="internal">
        <lane id=":gneJ37_8_0" index="0" speed="8.00" length="5.93" shape="201.60,192.80 201.05,196.65 200.00,198.40"/>
    </edge>
    <edge id=":gneJ37_13" function="internal">
        <lane id=":gneJ37_13_0" index="0" speed="8.00" length="8.26" shape="200.00,198.40 199.40,199.40 196.65,201.05 192.80,201.60"/>
    </edge>
    <edge id=":gneJ37_9" function="internal">
        <lane id=":gneJ37_9_0" index="0" speed="6.51" length="9.03" shape="192.80,198.40 195.25,198.05 197.00,197.00 198.05,195.25 198.40,192.80"/>
    </edge>
    <edge id=":gneJ37_10" function="internal">
        <lane id=":gneJ37_10_0" index="0" speed="13.89" length="14.40" shape="192.80,198.40 207.20,198.40"/>
    </edge>
    <edge id=":gneJ37_11" function="internal">
        <lane id=":gneJ37_11_0" index="0" speed="8.00" length="14.19" shape="192.80,198.40 196.65,198.95 199.40,200.60 201.05,203.35 201.60,207.20"/>
    </edge>
    <edge id=":gneJ4_0" function="internal">
        <lane id=":gneJ4_0_0" index="0" speed="13.89" length="14.40" shape="207.20,301.60 192.80,301.60"/>
    </edge>
    <edge id=":gneJ4_1" function="internal">
        <lane id=":gneJ4_1_0" index="0" speed="8.00" length="5.93" shape="207.20,301.60 203.35,301.05 201.60,300.00"/>
    </edge>
    <edge id=":gneJ4_6" function="internal">
        <lane id=":gneJ4_6_0" index="0" speed="8.00" length="8.26" shape="201.60,300.00 200.60,299.40 198.95,296.65 198.40,292.80"/>
    </edge>
    <edge id=":gneJ4_2" function="internal">
        <lane id=":gneJ4_2_0" index="0" speed="6.51" length="9.03" shape="201.60,292.80 201.95,295.25 203.00,297.00 204.75,298.05 207.20,298.40"/>
    </edge>
    <edge id=":gneJ4_3" function="internal">
        <lane id=":gneJ4_3_0" index="0" speed="8.00" length="14.19" shape="201.60,292.80 201.05,296.65 199.40,299.40 196.65,301.05 192.80,301.60"/>
    </edge>
    <edge id=":gneJ4_4" function="internal">
        <lane id=":gneJ4_4_0" index="0" speed="6.51" length="9.03" shape="192.80,298.40 195.25,298.05 197.00,297.00 198.05,295.25 198.40,292.80"/>
    </edge>
    <edge id=":gneJ4_5" function="internal">
        <lane id=":gneJ4_5_0" index="0" speed="13.89" length="14.40" shape="192.80,298.40 207.20,298.40"/>
    </edge>
    <edge id=":gneJ40_0" function="internal">
        <lane id=":gneJ40_0_0" index="0" speed="13.89" length="0.10" shape="0.00,1.60 0.00,1.60"/>
    </edge>
    <edge id=":gneJ40_1" function="internal">
        <lane id=":gneJ40_1_0" index="0" speed="13.89" length="0.10" shape="0.00,-1.60 0.00,-1.60"/>
    </edge>
    <edge id=":gneJ41_0" function="internal">
        <lane id=":gneJ41_0_0" index="0" speed="6.51" length="9.03" shape="198.40,-192.80 198.05,-195.25 197.00,-197.00 195.25,-198.05 192.80,-198.40"/>
    </edge>
    <edge id=":gneJ41_1" function="internal">
        <lane id=":gneJ41_1_0" index="0" speed="8.00" length="14.19" shape="198.40,-192.80 198.95,-196.65 200.60,-199.40 203.35,-201.05 207.20,-201.60"/>
    </edge>
    <edge id=":gneJ41_2" function="internal">
        <lane id=":gneJ41_2_0" index="0" speed="6.51" length="9.03" shape="207.20,-198.40 204.75,-198.05 203.00,-197.00 201.95,-195.25 201.60,-192.80"/>
    </edge>
    <edge id=":gneJ41_3" function="internal">
        <lane id=":gneJ41_3_0" index="0" speed="13.89" length="14.40" shape="207.20,-198.40 192.80,-198.40"/>
    </edge>
    <edge id=":gneJ41_4" function="internal">
        <lane id=":gneJ41_4_0" index="0" speed="13.89" length="14.40" shape="192.80,-201.60 207.20,-201.60"/>
    </edge>
    <edge id=":gneJ41_5" function="internal">
        <lane id=":gneJ41_5_0" index="0" speed="8.00" length="5.93" shape="192.80,-201.60 196.65,-201.05 198.40,-200.00"/>
    </edge>
    <edge id=":gneJ41_6" function="internal">
        <lane id=":gneJ41_6_0" index="0" speed="8.00" length="8.26" shape="198.40,-200.00 199.40,-199.40 201.05,-196.65 201.60,-192.80"/>
    </edge>
    <edge id=":gneJ45_0" function="internal">
        <lane id=":gneJ45_0_0" index="0" speed="6.08" length="7.74" shape="-201.60,103.20 -201.30,101.10 -200.40,99.60 -198.90,98.70 -196.80,98.40"/>
    </edge>
    <edge id=":gneJ45_1" function="internal">
        <lane id=":gneJ45_1_0" index="0" speed="3.90" length="2.58" shape="-196.80,101.60 -197.50,101.70 -198.00,102.00 -198.30,102.50 -198.40,103.20"/>
    </edge>
    <edge id=":gneJ46_0" function="internal">
        <lane id=":gneJ46_0_0" index="0" speed="13.89" length="0.10" shape="100.00,301.60 100.00,301.60"/>
    </edge>
    <edge id=":gneJ46_1" function="internal">
        <lane id=":gneJ46_1_0" index="0" speed="13.89" length="0.10" shape="100.00,298.40 100.00,298.40"/>
    </edge>
    <edge id=":gneJ5_0" function="internal">
        <lane id=":gneJ5_0_0" index="0" speed="6.08" length="7.74" shape="301.60,296.80 301.30,298.90 300.40,300.40 298.90,301.30 296.80,301.60"/>
    </edge>
    <edge id=":gneJ5_1" function="internal">
        <lane id=":gneJ5_1_0" index="0" speed="3.90" length="2.58" shape="296.80,298.40 297.50,298.30 298.00,298.00 298.30,297.50 298.40,296.80"/>
    </edge>
    <edge id=":gneJ6_0" function="internal">
        <lane id=":gneJ6_0_0" index="0" speed="6.51" length="9.03" shape="298.40,207.20 298.05,204.75 297.00,203.00 295.25,201.95 292.80,201.60"/>
    </edge>
    <edge id=":gneJ6_1" function="internal">
        <lane id=":gneJ6_1_0" index="0" speed="13.89" length="14.40" shape="298.40,207.20 298.40,192.80"/>
    </edge>