<?xml version="1.0" encoding="utf-8"?>
<additional xmlns:xsi="http://www.w3.org/2001/XMLSchema-instance" xsi:noNamespaceSchemaLocation="http://sumo.dlr.de/xsd/additional_file.xsd">
	<parkingArea id="parkingArea_-gneE14_0_1" lane="-gneE14_0" friendlyPos="1" startPos="0.00" endPos="50.00" roadsideCapacity="26"></parkingArea>
	<parkingArea id="parkingArea_gneE15_0_1" lane="gneE15_0" friendlyPos="1" startPos="43.07" endPos="93.07" roadsideCapacity="26"></parkingArea>
</additional>