<?xml version="1.0" encoding="UTF-8"?>

<!-- generated on Wednesday 26 June 2019 01:19:00 AM IST by Eclipse SUMO netedit Version 1.2.0
<configuration xmlns:xsi="http://www.w3.org/2001/XMLSchema-instance" xsi:noNamespaceSchemaLocation="http://sumo.dlr.de/xsd/netconvertConfiguration.xsd">

    <input>
        <sumo-net-file value="/home/tara/codes/aco/networks/distance/distance.net.xml"/>
    </input>

    <output>
        <output-file value="/home/tara/codes/aco/networks/distance/distance.net.xml"/>
    </output>

    <processing>
        <geometry.max-grade.fix value="false"/>
        <offset.disable-normalization value="true"/>
        <lefthand value="false"/>
    </processing>

    <junctions>
        <no-turnarounds value="true"/>
        <junctions.corner-detail value="5"/>
        <junctions.limit-turn-speed value="5.5"/>
        <rectangular-lane-cut value="false"/>
    </junctions>

    <pedestrian>
        <walkingareas value="false"/>
    </pedestrian>

    <netedit>
        <additional-files value="/home/tara/codes/aco/networks/distance/distance.original.add.xml"/>
    </netedit>

</configuration>
-->

<additional xmlns:xsi="http://www.w3.org/2001/XMLSchema-instance" xsi:noNamespaceSchemaLocation="http://sumo.dlr.de/xsd/additional_file.xsd">
    <parkingArea id="parkingArea_-gneE14_0_1" lane="-gneE14_0" friendlyPos="1" startPos="0.00" endPos="50.00"/>
    <parkingArea id="parkingArea_gneE15_0_1" lane="gneE15_0" friendlyPos="1" startPos="43.07" endPos="93.07"/>
</additional>
