<?xml version="1.0" encoding="UTF-8"?>

<!-- generated on Wednesday 26 June 2019 12:06:36 AM IST by Eclipse SUMO netedit Version 1.2.0
<configuration xmlns:xsi="http://www.w3.org/2001/XMLSchema-instance" xsi:noNamespaceSchemaLocation="http://sumo.dlr.de/xsd/netconvertConfiguration.xsd">

    <input>
        <sumo-net-file value="/home/tara/codes/aco/networks/rings/rings.net.xml"/>
    </input>

    <output>
        <output-file value="/home/tara/codes/aco/networks/rings/rings.net.xml"/>
    </output>

    <processing>
        <geometry.max-grade.fix value="false"/>
        <offset.disable-normalization value="true"/>
        <lefthand value="false"/>
    </processing>

    <junctions>
        <no-turnarounds value="true"/>
        <junctions.corner-detail value="5"/>
        <junctions.limit-turn-speed value="5.5"/>
        <rectangular-lane-cut value="false"/>
    </junctions>

    <pedestrian>
        <walkingareas value="false"/>
    </pedestrian>

</configuration>
-->

<net version="1.1" junctionCornerDetail="5" limitTurnSpeed="5.50" xmlns:xsi="http://www.w3.org/2001/XMLSchema-instance" xsi:noNamespaceSchemaLocation="http://sumo.dlr.de/xsd/net_file.xsd">

    <location netOffset="0.00,0.00" convBoundary="-900.00,-1800.00,2300.00,900.00" origBoundary="-10000000000.00,-10000000000.00,10000000000.00,10000000000.00" projParameter="!"/>

    <edge id=":gneJ0_0" function="internal">
        <lane id=":gneJ0_0_0" index="0" speed="10.77" length="10.63" shape="-292.80,301.60 -295.87,301.81 -298.53,302.42 -300.78,303.45 -302.63,304.90"/>
    </edge>
    <edge id=":gneJ0_1" function="internal">
        <lane id=":gneJ0_1_0" index="0" speed="8.00" length="4.86" shape="-292.80,301.60 -296.65,301.05 -297.48,300.55"/>
    </edge>
    <edge id=":gneJ0_6" function="internal">
        <lane id=":gneJ0_6_0" index="0" speed="8.00" length="9.33" shape="-297.48,300.55 -299.40,299.40 -301.05,296.65 -301.60,292.80"/>
    </edge>
    <edge id=":gneJ0_2" function="internal">
        <lane id=":gneJ0_2_0" index="0" speed="6.51" length="9.03" shape="-298.40,292.80 -298.05,295.25 -297.00,297.00 -295.25,298.05 -292.80,298.40"/>
    </edge>
    <edge id=":gneJ0_3" function="internal">
        <lane id=":gneJ0_3_0" index="0" speed="11.94" length="13.14" shape="-298.40,292.80 -298.66,296.50 -299.46,299.76 -300.78,302.55 -302.63,304.90"/>
    </edge>
    <edge id=":gneJ0_4" function="internal">
        <lane id=":gneJ0_4_0" index="0" speed="10.77" length="10.63" shape="-304.90,302.63 -303.45,300.78 -302.42,298.53 -301.81,295.87 -301.60,292.80"/>
    </edge>
    <edge id=":gneJ0_5" function="internal">
        <lane id=":gneJ0_5_0" index="0" speed="11.94" length="13.14" shape="-304.90,302.63 -302.55,300.78 -299.76,299.46 -296.50,298.66 -292.80,298.40"/>
    </edge>
    <edge id=":gneJ1_0" function="internal">
        <lane id=":gneJ1_0_0" index="0" speed="6.08" length="7.74" shape="101.60,296.80 101.30,298.90 100.40,300.40 98.90,301.30 96.80,301.60"/>
    </edge>
    <edge id=":gneJ1_1" function="internal">
        <lane id=":gneJ1_1_0" index="0" speed="3.90" length="2.58" shape="96.80,298.40 97.50,298.30 98.00,298.00 98.30,297.50 98.40,296.80"/>
    </edge>
    <edge id=":gneJ10_0" function="internal">
        <lane id=":gneJ10_0_0" index="0" speed="3.90" length="2.58" shape="498.40,-496.80 498.30,-497.50 498.00,-498.00 497.50,-498.30 496.80,-498.40"/>
    </edge>
    <edge id=":gneJ10_1" function="internal">
        <lane id=":gneJ10_1_0" index="0" speed="6.08" length="7.74" shape="496.80,-501.60 498.90,-501.30 500.40,-500.40 501.30,-498.90 501.60,-496.80"/>
    </edge>
    <edge id=":gneJ11_0" function="internal">
        <lane id=":gneJ11_0_0" index="0" speed="6.08" length="7.74" shape="501.60,696.80 501.30,698.90 500.40,700.40 498.90,701.30 496.80,701.60"/>
    </edge>
    <edge id=":gneJ11_1" function="internal">
        <lane id=":gneJ11_1_0" index="0" speed="3.90" length="2.58" shape="496.80,698.40 497.50,698.30 498.00,698.00 498.30,697.50 498.40,696.80"/>
    </edge>
    <edge id=":gneJ12_0" function="internal">
        <lane id=":gneJ12_0_0" index="0" speed="4.20" length="1.26" shape="-698.67,701.60 -698.99,701.63 -699.29,701.72 -699.56,701.86 -699.81,702.07"/>
    </edge>
    <edge id=":gneJ12_1" function="internal">
        <lane id=":gneJ12_1_0" index="0" speed="6.63" length="3.77" shape="-702.07,699.81 -701.33,699.19 -700.52,698.75 -699.63,698.49 -698.67,698.40"/>
    </edge>
    <edge id=":gneJ13_0" function="internal">
        <lane id=":gneJ13_0_0" index="0" speed="6.49" length="14.35" shape="-893.41,895.67 -896.99,898.53 -899.55,898.92 -901.09,896.83 -901.60,892.27"/>
    </edge>
    <edge id=":gneJ13_1" function="internal">
        <lane id=":gneJ13_1_0" index="0" speed="4.12" length="4.78" shape="-898.40,892.27 -898.23,893.79 -897.72,894.49 -896.86,894.36 -895.67,893.41"/>
    </edge>
    <edge id=":gneJ14_0" function="internal">
        <lane id=":gneJ14_0_0" index="0" speed="6.08" length="7.74" shape="-901.60,-696.80 -901.30,-698.90 -900.40,-700.40 -898.90,-701.30 -896.80,-701.60"/>
    </edge>
    <edge id=":gneJ14_1" function="internal">
        <lane id=":gneJ14_1_0" index="0" speed="3.90" length="2.58" shape="-896.80,-698.40 -897.50,-698.30 -898.00,-698.00 -898.30,-697.50 -898.40,-696.80"/>
    </edge>
    <edge id=":gneJ15_0" function="internal">
        <lane id=":gneJ15_0_0" index="0" speed="6.51" length="9.03" shape="698.40,-692.80 698.05,-695.25 697.00,-697.00 695.25,-698.05 692.80,-698.40"/>
    </edge>
    <edge id=":gneJ15_1" function="internal">
        <lane id=":gneJ15_1_0" index="0" speed="8.00" length="14.19" shape="698.40,-692.80 698.95,-696.65 700.60,-699.40 703.35,-701.05 707.20,-701.60"/>
    </edge>
    <edge id=":gneJ15_2" function="internal">
        <lane id=":gneJ15_2_0" index="0" speed="6.51" length="9.03" shape="707.20,-698.40 704.75,-698.05 703.00,-697.00 701.95,-695.25 701.60,-692.80"/>
    </edge>
    <edge id=":gneJ15_3" function="internal">
        <lane id=":gneJ15_3_0" index="0" speed="13.89" length="14.40" shape="707.20,-698.40 692.80,-698.40"/>
    </edge>
    <edge id=":gneJ15_4" function="internal">
        <lane id=":gneJ15_4_0" index="0" speed="13.89" length="14.40" shape="692.80,-701.60 707.20,-701.60"/>
    </edge>
    <edge id=":gneJ15_5" function="internal">
        <lane id=":gneJ15_5_0" index="0" speed="8.00" length="5.93" shape="692.80,-701.60 696.65,-701.05 698.40,-700.00"/>
    </edge>
    <edge id=":gneJ15_6" function="internal">
        <lane id=":gneJ15_6_0" index="0" speed="8.00" length="8.26" shape="698.40,-700.00 699.40,-699.40 701.05,-696.65 701.60,-692.80"/>
    </edge>
    <edge id=":gneJ16_0" function="internal">
        <lane id=":gneJ16_0_0" index="0" speed="6.08" length="7.74" shape="701.60,896.80 701.30,898.90 700.40,900.40 698.90,901.30 696.80,901.60"/>
    </edge>
    <edge id=":gneJ16_1" function="internal">
        <lane id=":gneJ16_1_0" index="0" speed="3.90" length="2.58" shape="696.80,898.40 697.50,898.30 698.00,898.00 698.30,897.50 698.40,896.80"/>
    </edge>
    <edge id=":gneJ18_0" function="internal">
        <lane id=":gneJ18_0_0" index="0" speed="6.08" length="7.74" shape="1201.60,-703.20 1201.30,-701.10 1200.40,-699.60 1198.90,-698.70 1196.80,-698.40"/>
    </edge>
    <edge id=":gneJ18_1" function="internal">
        <lane id=":gneJ18_1_0" index="0" speed="3.90" length="2.58" shape="1196.80,-701.60 1197.50,-701.70 1198.00,-702.00 1198.30,-702.50 1198.40,-703.20"/>
    </edge>
    <edge id=":gneJ19_0" function="internal">
        <lane id=":gneJ19_0_0" index="0" speed="6.08" length="7.74" shape="1198.40,-1796.80 1198.70,-1798.90 1199.60,-1800.40 1201.10,-1801.30 1203.20,-1801.60"/>
    </edge>
    <edge id=":gneJ19_1" function="internal">
        <lane id=":gneJ19_1_0" index="0" speed="3.90" length="2.58" shape="1203.20,-1798.40 1202.50,-1798.30 1202.00,-1798.00 1201.70,-1797.50 1201.60,-1796.80"/>
    </edge>
    <edge id=":gneJ2_0" function="internal">
        <lane id=":gneJ2_0_0" index="0" speed="3.90" length="2.58" shape="98.40,-96.80 98.30,-97.50 98.00,-98.00 97.50,-98.30 96.80,-98.40"/>
    </edge>
    <edge id=":gneJ2_1" function="internal">
        <lane id=":gneJ2_1_0" index="0" speed="6.08" length="7.74" shape="96.80,-101.60 98.90,-101.30 100.40,-100.40 101.30,-98.90 101.60,-96.80"/>
    </edge>
    <edge id=":gneJ20_0" function="internal">
        <lane id=":gneJ20_0_0" index="0" speed="3.90" length="2.58" shape="2298.40,-1796.80 2298.30,-1797.50 2298.00,-1798.00 2297.50,-1798.30 2296.80,-1798.40"/>
    </edge>
    <edge id=":gneJ20_1" function="internal">
        <lane id=":gneJ20_1_0" index="0" speed="6.08" length="7.74" shape="2296.80,-1801.60 2298.90,-1801.30 2300.40,-1800.40 2301.30,-1798.90 2301.60,-1796.80"/>
    </edge>
    <edge id=":gneJ21_0" function="internal">
        <lane id=":gneJ21_0_0" index="0" speed="6.08" length="7.74" shape="2301.60,-703.20 2301.30,-701.10 2300.40,-699.60 2298.90,-698.70 2296.80,-698.40"/>
    </edge>
    <edge id=":gneJ21_1" function="internal">
        <lane id=":gneJ21_1_0" index="0" speed="3.90" length="2.58" shape="2296.80,-701.60 2297.50,-701.70 2298.00,-702.00 2298.30,-702.50 2298.40,-703.20"/>
    </edge>
    <edge id=":gneJ22_0" function="internal">
        <lane id=":gneJ22_0_0" index="0" speed="6.49" length="14.35" shape="1207.73,-698.40 1203.17,-698.91 1201.08,-700.45 1201.47,-703.01 1204.33,-706.59"/>
    </edge>
    <edge id=":gneJ22_1" function="internal">
        <lane id=":gneJ22_1_0" index="0" speed="4.12" length="4.78" shape="1206.59,-704.33 1205.64,-703.14 1205.51,-702.28 1206.21,-701.77 1207.73,-701.60"/>
    </edge>
    <edge id=":gneJ23_0" function="internal">
        <lane id=":gneJ23_0_0" index="0" speed="6.63" length="3.77" shape="1401.60,-901.33 1401.51,-900.37 1401.25,-899.48 1400.81,-898.67 1400.19,-897.93"/>
    </edge>
    <edge id=":gneJ23_1" function="internal">
        <lane id=":gneJ23_1_0" index="0" speed="4.20" length="1.26" shape="1397.93,-900.19 1398.14,-900.44 1398.28,-900.71 1398.37,-901.01 1398.40,-901.33"/>
    </edge>
    <edge id=":gneJ24_0" function="internal">
        <lane id=":gneJ24_0_0" index="0" speed="6.08" length="7.74" shape="1398.40,-1596.80 1398.70,-1598.90 1399.60,-1600.40 1401.10,-1601.30 1403.20,-1601.60"/>
    </edge>
    <edge id=":gneJ24_1" function="internal">
        <lane id=":gneJ24_1_0" index="0" speed="3.90" length="2.58" shape="1403.20,-1598.40 1402.50,-1598.30 1402.00,-1598.00 1401.70,-1597.50 1401.60,-1596.80"/>
    </edge>
    <edge id=":gneJ25_0" function="internal">
        <lane id=":gneJ25_0_0" index="0" speed="3.90" length="2.58" shape="2098.40,-1596.80 2098.30,-1597.50 2098.00,-1598.00 2097.50,-1598.30 2096.80,-1598.40"/>
    </edge>
    <edge id=":gneJ25_1" function="internal">
        <lane id=":gneJ25_1_0" index="0" speed="6.08" length="7.74" shape="2096.80,-1601.60 2098.90,-1601.30 2100.40,-1600.40 2101.30,-1598.90 2101.60,-1596.80"/>
    </edge>
    <edge id=":gneJ26_0" function="internal">
        <lane id=":gneJ26_0_0" index="0" speed="6.08" length="7.74" shape="2101.60,-903.20 2101.30,-901.10 2100.40,-899.60 2098.90,-898.70 2096.80,-898.40"/>
    </edge>
    <edge id=":gneJ26_1" function="internal">
        <lane id=":gneJ26_1_0" index="0" speed="3.90" length="2.58" shape="2096.80,-901.60 2097.50,-901.70 2098.00,-902.00 2098.30,-902.50 2098.40,-903.20"/>
    </edge>
    <edge id=":gneJ27_0" function="internal">
        <lane id=":gneJ27_0_0" index="0" speed="6.49" length="14.35" shape="1407.73,-898.40 1403.17,-898.91 1401.08,-900.45 1401.47,-903.01 1404.33,-906.59"/>
    </edge>
    <edge id=":gneJ27_1" function="internal">
        <lane id=":gneJ27_1_0" index="0" speed="4.12" length="4.78" shape="1406.59,-904.33 1405.64,-903.14 1405.51,-902.28 1406.21,-901.77 1407.73,-901.60"/>
    </edge>
    <edge id=":gneJ28_0" function="internal">
        <lane id=":gneJ28_0_0" index="0" speed="6.63" length="3.77" shape="1601.60,-1101.33 1601.51,-1100.37 1601.25,-1099.48 1600.81,-1098.67 1600.19,-1097.93"/>
    </edge>
    <edge id=":gneJ28_1" function="internal">
        <lane id=":gneJ28_1_0" index="0" speed="4.20" length="1.26" shape="1597.93,-1100.19 1598.14,-1100.44 1598.28,-1100.71 1598.37,-1101.01 1598.40,-1101.33"/>
    </edge>
    <edge id=":gneJ29_0" function="internal">
        <lane id=":gneJ29_0_0" index="0" speed="6.08" length="7.74" shape="1598.40,-1396.80 1598.70,-1398.90 1599.60,-1400.40 1601.10,-1401.30 1603.20,-1401.60"/>
    </edge>
    <edge id=":gneJ29_1" function="internal">
        <lane id=":gneJ29_1_0" index="0" speed="3.90" length="2.58" shape="1603.20,-1398.40 1602.50,-1398.30 1602.00,-1398.00 1601.70,-1397.50 1601.60,-1396.80"/>
    </edge>
    <edge id=":gneJ3_0" function="internal">
        <lane id=":gneJ3_0_0" index="0" speed="6.08" length="7.74" shape="-301.60,-96.80 -301.30,-98.90 -300.40,-100.40 -298.90,-101.30 -296.80,-101.60"/>
    </edge>
    <edge id=":gneJ3_1" function="internal">
        <lane id=":gneJ3_1_0" index="0" speed="3.90" length="2.58" shape="-296.80,-98.40 -297.50,-98.30 -298.00,-98.00 -298.30,-97.50 -298.40,-96.80"/>
    </edge>
    <edge id=":gneJ30_0" function="internal">
        <lane id=":gneJ30_0_0" index="0" speed="3.90" length="2.58" shape="1898.40,-1396.80 1898.30,-1397.50 1898.00,-1398.00 1897.50,-1398.30 1896.80,-1398.40"/>
    </edge>
    <edge id=":gneJ30_1" function="internal">
        <lane id=":gneJ30_1_0" index="0" speed="6.08" length="7.74" shape="1896.80,-1401.60 1898.90,-1401.30 1900.40,-1400.40 1901.30,-1398.90 1901.60,-1396.80"/>
    </edge>
    <edge id=":gneJ31_0" function="internal">
        <lane id=":gneJ31_0_0" index="0" speed="6.08" length="7.74" shape="1901.60,-1103.20 1901.30,-1101.10 1900.40,-1099.60 1898.90,-1098.70 1896.80,-1098.40"/>
    </edge>
    <edge id=":gneJ31_1" function="internal">
        <lane id=":gneJ31_1_0" index="0" speed="3.90" length="2.58" shape="1896.80,-1101.60 1897.50,-1101.70 1898.00,-1102.00 1898.30,-1102.50 1898.40,-1103.20"/>
    </edge>
    <edge id=":gneJ4_0" function="internal">
        <lane id=":gneJ4_0_0" index="0" speed="12.73" length="15.02" shape="-488.27,501.60 -493.32,501.81 -497.40,502.42 -500.50,503.45 -502.63,504.90"/>
    </edge>
    <edge id=":gneJ4_1" function="internal">
        <lane id=":gneJ4_1_0" index="0" speed="9.73" length="21.49" shape="-488.27,501.60 -494.10,500.77 -498.27,498.27 -500.77,494.10 -501.60,488.27"/>
    </edge>
    <edge id=":gneJ4_2" function="internal">
        <lane id=":gneJ4_2_0" index="0" speed="7.42" length="19.31" shape="-488.27,501.60 -494.41,500.91 -497.21,498.84 -496.69,495.40 -492.84,490.58"/>
    </edge>
    <edge id=":gneJ4_3" function="internal">
        <lane id=":gneJ4_3_0" index="0" speed="5.47" length="9.74" shape="-490.58,492.84 -492.52,495.27 -492.78,497.01 -491.37,498.05 -488.27,498.40"/>
    </edge>
    <edge id=":gneJ4_4" function="internal">
        <lane id=":gneJ4_4_0" index="0" speed="13.89" length="17.05" shape="-490.58,492.84 -502.63,504.90"/>
    </edge>
    <edge id=":gneJ4_5" function="internal">
        <lane id=":gneJ4_5_0" index="0" speed="7.42" length="7.71" shape="-490.58,492.84 -495.40,496.69 -496.92,496.92"/>
    </edge>
    <edge id=":gneJ4_12" function="internal">
        <lane id=":gneJ4_12_0" index="0" speed="7.42" length="11.60" shape="-496.92,496.92 -498.84,497.21 -500.91,494.41 -501.60,488.27"/>
    </edge>
    <edge id=":gneJ4_6" function="internal">
        <lane id=":gneJ4_6_0" index="0" speed="5.47" length="9.74" shape="-498.40,488.27 -498.05,491.37 -497.01,492.78 -495.27,492.52 -492.84,490.58"/>
    </edge>
    <edge id=":gneJ4_7" function="internal">
        <lane id=":gneJ4_7_0" index="0" speed="8.54" length="16.33" shape="-498.40,488.27 -497.77,492.70 -495.87,495.87 -492.70,497.77 -488.27,498.40"/>
    </edge>
    <edge id=":gneJ4_8" function="internal">
        <lane id=":gneJ4_8_0" index="0" speed="13.73" length="17.52" shape="-498.40,488.27 -498.66,493.96 -499.46,498.62 -500.78,502.27 -502.63,504.90"/>
    </edge>
    <edge id=":gneJ4_9" function="internal">
        <lane id=":gneJ4_9_0" index="0" speed="12.73" length="15.02" shape="-504.90,502.63 -503.45,500.50 -502.42,497.40 -501.81,493.32 -501.60,488.27"/>
    </edge>
    <edge id=":gneJ4_10" function="internal">
        <lane id=":gneJ4_10_0" index="0" speed="13.89" length="17.05" shape="-504.90,502.63 -492.84,490.58"/>
    </edge>
    <edge id=":gneJ4_11" function="internal">
        <lane id=":gneJ4_11_0" index="0" speed="13.73" length="5.70" shape="-504.90,502.63 -502.27,500.78 -499.93,499.93"/>
    </edge>
    <edge id=":gneJ4_13" function="internal">
        <lane id=":gneJ4_13_0" index="0" speed="13.73" length="11.82" shape="-499.93,499.93 -498.62,499.46 -493.96,498.66 -488.27,498.40"/>
    </edge>
    <edge id=":gneJ5_0" function="internal">
        <lane id=":gneJ5_0_0" index="0" speed="6.08" length="7.74" shape="-501.60,-296.80 -501.30,-298.90 -500.40,-300.40 -498.90,-301.30 -496.80,-301.60"/>
    </edge>
    <edge id=":gneJ5_1" function="internal">
        <lane id=":gneJ5_1_0" index="0" speed="3.90" length="2.58" shape="-496.80,-298.40 -497.50,-298.30 -498.00,-298.00 -498.30,-297.50 -498.40,-296.80"/>
    </edge>
    <edge id=":gneJ6_0" function="internal">
        <lane id=":gneJ6_0_0" index="0" speed="3.90" length="2.58" shape="298.40,-296.80 298.30,-297.50 298.00,-298.00 297.50,-298.30 296.80,-298.40"/>
    </edge>
    <edge id=":gneJ6_1" function="internal">
        <lane id=":gneJ6_1_0" index="0" speed="6.08" length="7.74" shape="296.80,-301.60 298.90,-301.30 300.40,-300.40 301.30,-298.90 301.60,-296.80"/>
    </edge>
    <edge id=":gneJ7_0" function="internal">
        <lane id=":gneJ7_0_0" index="0" speed="6.08" length="7.74" shape="301.60,496.80 301.30,498.90 300.40,500.40 298.90,501.30 296.80,501.60"/>
    </edge>
    <edge id=":gneJ7_1" function="internal">
        <lane id=":gneJ7_1_0" index="0" speed="3.90" length="2.58" shape="296.80,498.40 297.50,498.30 298.00,498.00 298.30,497.50 298.40,496.80"/>
    </edge>
    <edge id=":gneJ8_0" function="internal">
        <lane id=":gneJ8_0_0" index="0" speed="6.49" length="14.35" shape="-693.41,695.67 -696.99,698.53 -699.55,698.92 -701.09,696.83 -701.60,692.27"/>
    </edge>
    <edge id=":gneJ8_1" function="internal">
        <lane id=":gneJ8_1_0" index="0" speed="4.12" length="4.78" shape="-698.40,692.27 -698.23,693.79 -697.72,694.49 -696.86,694.36 -695.67,693.41"/>
    </edge>
    <edge id=":gneJ9_0" function="internal">
        <lane id=":gneJ9_0_0" index="0" speed="6.08" length="7.74" shape="-701.60,-496.80 -701.30,-498.90 -700.40,-500.40 -698.90,-501.30 -696.80,-501.60"/>
    </edge>
    <edge id=":gneJ9_1" function="internal">
        <lane id=":gneJ9_1_0" index="0" speed="3.90" length="2.58" shape="-696.80,-498.40 -697.50,-498.30 -698.00,-498.00 -698.30,-497.50 -698.40,-496.80"/>
    </edge>

    <edge id="-gneE0" from="gneJ1" to="gneJ0" priority="-1">
        <lane id="-gneE0_0" index="0" speed="13.89" length="389.60" shape="96.80,301.60 -292.80,301.60"/>
    </edge>
    <edge id="-gneE1" from="gneJ2" to="gneJ1" priority="-1">
        <lane id="-gneE1_0" index="0" speed="13.89" length="393.60" shape="101.60,-96.80 101.60,296.80"/>
    </edge>
    <edge id="-gneE10" from="gneJ9" to="gneJ8" priority="-1">
        <lane id="-gneE10_0" index="0" speed="13.89" length="1189.07" shape="-698.40,-496.80 -698.40,692.27"/>
    </edge>
    <edge id="-gneE11" from="gneJ10" to="gneJ9" priority="-1">
        <lane id="-gneE11_0" index="0" speed="13.89" length="1193.60" shape="496.80,-498.40 -696.80,-498.40"/>
    </edge>
    <edge id="-gneE12" from="gneJ11" to="gneJ10" priority="-1">
        <lane id="-gneE12_0" index="0" speed="13.89" length="1193.60" shape="498.40,696.80 498.40,-496.80"/>
    </edge>
    <edge id="-gneE13" from="gneJ12" to="gneJ11" priority="-1">
        <lane id="-gneE13_0" index="0" speed="13.89" length="1195.47" shape="-698.67,698.40 496.80,698.40"/>
    </edge>
    <edge id="-gneE14" from="gneJ13" to="gneJ12" priority="-1">
        <lane id="-gneE14_0" index="0" speed="13.89" length="273.79" shape="-895.67,893.41 -702.07,699.81"/>
    </edge>
    <edge id="-gneE15" from="gneJ14" to="gneJ13" priority="-1">
        <lane id="-gneE15_0" index="0" speed="13.89" length="1589.07" shape="-898.40,-696.80 -898.40,892.27"/>
    </edge>
    <edge id="-gneE16" from="gneJ15" to="gneJ14" priority="-1">
        <lane id="-gneE16_0" index="0" speed="13.89" length="1589.60" shape="692.80,-698.40 -896.80,-698.40"/>
    </edge>
    <edge id="-gneE17" from="gneJ16" to="gneJ15" priority="-1">
        <lane id="-gneE17_0" index="0" speed="13.89" length="1589.60" shape="698.40,896.80 698.40,-692.80"/>
    </edge>
    <edge id="-gneE18" from="gneJ17" to="gneJ16" priority="-1">
        <lane id="-gneE18_0" index="0" speed="13.89" length="1596.80" shape="-900.00,898.40 696.80,898.40"/>
    </edge>
    <edge id="-gneE19" from="gneJ18" to="gneJ15" priority="-1">
        <lane id="-gneE19_0" index="0" speed="13.89" length="489.60" shape="1196.80,-698.40 707.20,-698.40"/>
    </edge>
    <edge id="-gneE2" from="gneJ3" to="gneJ2" priority="-1">
        <lane id="-gneE2_0" index="0" speed="13.89" length="393.60" shape="-296.80,-101.60 96.80,-101.60"/>
    </edge>
    <edge id="-gneE20" from="gneJ19" to="gneJ18" priority="-1">
        <lane id="-gneE20_0" index="0" speed="13.89" length="1093.60" shape="1201.60,-1796.80 1201.60,-703.20"/>
    </edge>
    <edge id="-gneE21" from="gneJ20" to="gneJ19" priority="-1">
        <lane id="-gneE21_0" index="0" speed="13.89" length="1093.60" shape="2296.80,-1798.40 1203.20,-1798.40"/>
    </edge>
    <edge id="-gneE22" from="gneJ21" to="gneJ20" priority="-1">
        <lane id="-gneE22_0" index="0" speed="13.89" length="1093.60" shape="2298.40,-703.20 2298.40,-1796.80"/>
    </edge>
    <edge id="-gneE23" from="gneJ22" to="gneJ21" priority="-1">
        <lane id="-gneE23_0" index="0" speed="13.89" length="1089.07" shape="1207.73,-701.60 2296.80,-701.60"/>
    </edge>
    <edge id="-gneE24" from="gneJ23" to="gneJ22" priority="-1">
        <lane id="-gneE24_0" index="0" speed="13.89" length="273.79" shape="1400.19,-897.93 1206.59,-704.33"/>
    </edge>
    <edge id="-gneE25" from="gneJ24" to="gneJ23" priority="-1">
        <lane id="-gneE25_0" index="0" speed="13.89" length="695.47" shape="1401.60,-1596.80 1401.60,-901.33"/>
    </edge>
    <edge id="-gneE26" from="gneJ25" to="gneJ24" priority="-1">
        <lane id="-gneE26_0" index="0" speed="13.89" length="693.60" shape="2096.80,-1598.40 1403.20,-1598.40"/>
    </edge>
    <edge id="-gneE27" from="gneJ26" to="gneJ25" priority="-1">
        <lane id="-gneE27_0" index="0" speed="13.89" length="693.60" shape="2098.40,-903.20 2098.40,-1596.80"/>
    </edge>
    <edge id="-gneE28" from="gneJ27" to="gneJ26" priority="-1">
        <lane id="-gneE28_0" index="0" speed="13.89" length="689.07" shape="1407.73,-901.60 2096.80,-901.60"/>
    </edge>
    <edge id="-gneE29" from="gneJ28" to="gneJ27" priority="-1">
        <lane id="-gneE29_0" index="0" speed="13.89" length="273.79" shape="1600.19,-1097.93 1406.59,-904.33"/>
    </edge>
    <edge id="-gneE3" from="gneJ0" to="gneJ3" priority="-1">
        <lane id="-gneE3_0" index="0" speed="13.89" length="389.60" shape="-301.60,292.80 -301.60,-96.80"/>
    </edge>
    <edge id="-gneE30" from="gneJ29" to="gneJ28" priority="-1">
        <lane id="-gneE30_0" index="0" speed="13.89" length="295.47" shape="1601.60,-1396.80 1601.60,-1101.33"/>
    </edge>
    <edge id="-gneE31" from="gneJ30" to="gneJ29" priority="-1">
        <lane id="-gneE31_0" index="0" speed="13.89" length="293.60" shape="1896.80,-1398.40 1603.20,-1398.40"/>
    </edge>
    <edge id="-gneE32" from="gneJ31" to="gneJ30" priority="-1">
        <lane id="-gneE32_0" index="0" speed="13.89" length="293.60" shape="1898.40,-1103.20 1898.40,-1396.80"/>
    </edge>
    <edge id="-gneE33" from="gneJ32" to="gneJ31" priority="-1">
        <lane id="-gneE33_0" index="0" speed="13.89" length="296.80" shape="1600.00,-1101.60 1896.80,-1101.60"/>
    </edge>
    <edge id="-gneE4" from="gneJ4" to="gneJ0" priority="-1">
        <lane id="-gneE4_0" index="0" speed="13.89" length="265.79" shape="-492.84,490.58 -304.90,302.63"/>
    </edge>
    <edge id="-gneE5" from="gneJ5" to="gneJ4" priority="-1">
        <lane id="-gneE5_0" index="0" speed="13.89" length="785.07" shape="-498.40,-296.80 -498.40,488.27"/>
    </edge>
    <edge id="-gneE6" from="gneJ6" to="gneJ5" priority="-1">
        <lane id="-gneE6_0" index="0" speed="13.89" length="793.60" shape="296.80,-298.40 -496.80,-298.40"/>
    </edge>
    <edge id="-gneE7" from="gneJ7" to="gneJ6" priority="-1">
        <lane id="-gneE7_0" index="0" speed="13.89" length="793.60" shape="298.40,496.80 298.40,-296.80"/>
    </edge>
    <edge id="-gneE8" from="gneJ4" to="gneJ7" priority="-1">
        <lane id="-gneE8_0" index="0" speed="13.89" length="785.07" shape="-488.27,498.40 296.80,498.40"/>
    </edge>
    <edge id="-gneE9" from="gneJ8" to="gneJ4" priority="-1">
        <lane id="-gneE9_0" index="0" speed="13.89" length="269.79" shape="-695.67,693.41 -504.90,502.63"/>
    </edge>
    <edge id="gneE0" from="gneJ0" to="gneJ1" priority="-1">
        <lane id="gneE0_0" index="0" speed="13.89" length="389.60" shape="-292.80,298.40 96.80,298.40"/>
    </edge>
    <edge id="gneE1" from="gneJ1" to="gneJ2" priority="-1">
        <lane id="gneE1_0" index="0" speed="13.89" length="393.60" shape="98.40,296.80 98.40,-96.80"/>
    </edge>
    <edge id="gneE10" from="gneJ8" to="gneJ9" priority="-1">
        <lane id="gneE10_0" index="0" speed="13.89" length="1189.07" shape="-701.60,692.27 -701.60,-496.80"/>
    </edge>
    <edge id="gneE11" from="gneJ9" to="gneJ10" priority="-1">
        <lane id="gneE11_0" index="0" speed="13.89" length="1193.60" shape="-696.80,-501.60 496.80,-501.60"/>
    </edge>
    <edge id="gneE12" from="gneJ10" to="gneJ11" priority="-1">
        <lane id="gneE12_0" index="0" speed="13.89" length="1193.60" shape="501.60,-496.80 501.60,696.80"/>
    </edge>
    <edge id="gneE13" from="gneJ11" to="gneJ12" priority="-1">
        <lane id="gneE13_0" index="0" speed="13.89" length="1195.47" shape="496.80,701.60 -698.67,701.60"/>
    </edge>
    <edge id="gneE14" from="gneJ12" to="gneJ13" priority="-1">
        <lane id="gneE14_0" index="0" speed="13.89" length="273.79" shape="-699.81,702.07 -893.41,895.67"/>
    </edge>
    <edge id="gneE15" from="gneJ13" to="gneJ14" priority="-1">
        <lane id="gneE15_0" index="0" speed="13.89" length="1589.07" shape="-901.60,892.27 -901.60,-696.80"/>
    </edge>
    <edge id="gneE16" from="gneJ14" to="gneJ15" priority="-1">
        <lane id="gneE16_0" index="0" speed="13.89" length="1589.60" shape="-896.80,-701.60 692.80,-701.60"/>
    </edge>
    <edge id="gneE17" from="gneJ15" to="gneJ16" priority="-1">
        <lane id="gneE17_0" index="0" speed="13.89" length="1589.60" shape="701.60,-692.80 701.60,896.80"/>
    </edge>
    <edge id="gneE18" from="gneJ16" to="gneJ17" priority="-1">
        <lane id="gneE18_0" index="0" speed="13.89" length="1596.80" shape="696.80,901.60 -900.00,901.60"/>
    </edge>
    <edge id="gneE19" from="gneJ15" to="gneJ18" priority="-1">
        <lane id="gneE19_0" index="0" speed="13.89" length="489.60" shape="707.20,-701.60 1196.80,-701.60"/>
    </edge>
    <edge id="gneE2" from="gneJ2" to="gneJ3" priority="-1">
        <lane id="gneE2_0" index="0" speed="13.89" length="393.60" shape="96.80,-98.40 -296.80,-98.40"/>
    </edge>
    <edge id="gneE20" from="gneJ18" to="gneJ19" priority="-1">
        <lane id="gneE20_0" index="0" speed="13.89" length="1093.60" shape="1198.40,-703.20 1198.40,-1796.80"/>
    </edge>
    <edge id="gneE21" from="gneJ19" to="gneJ20" priority="-1">
        <lane id="gneE21_0" index="0" speed="13.89" length="1093.60" shape="1203.20,-1801.60 2296.80,-1801.60"/>
    </edge>
    <edge id="gneE22" from="gneJ20" to="gneJ21" priority="-1">
        <lane id="gneE22_0" index="0" speed="13.89" length="1093.60" shape="2301.60,-1796.80 2301.60,-703.20"/>
    </edge>
    <edge id="gneE23" from="gneJ21" to="gneJ22" priority="-1">
        <lane id="gneE23_0" index="0" speed="13.89" length="1089.07" shape="2296.80,-698.40 1207.73,-698.40"/>
    </edge>
    <edge id="gneE24" from="gneJ22" to="gneJ23" priority="-1">
        <lane id="gneE24_0" index="0" speed="13.89" length="273.79" shape="1204.33,-706.59 1397.93,-900.19"/>
    </edge>
    <edge id="gneE25" from="gneJ23" to="gneJ24" priority="-1">
        <lane id="gneE25_0" index="0" speed="13.89" length="695.47" shape="1398.40,-901.33 1398.40,-1596.80"/>
    </edge>
    <edge id="gneE26" from="gneJ24" to="gneJ25" priority="-1">
        <lane id="gneE26_0" index="0" speed="13.89" length="693.60" shape="1403.20,-1601.60 2096.80,-1601.60"/>
    </edge>
    <edge id="gneE27" from="gneJ25" to="gneJ26" priority="-1">
        <lane id="gneE27_0" index="0" speed="13.89" length="693.60" shape="2101.60,-1596.80 2101.60,-903.20"/>
    </edge>
    <edge id="gneE28" from="gneJ26" to="gneJ27" priority="-1">
        <lane id="gneE28_0" index="0" speed="13.89" length="689.07" shape="2096.80,-898.40 1407.73,-898.40"/>
    </edge>
    <edge id="gneE29" from="gneJ27" to="gneJ28" priority="-1">
        <lane id="gneE29_0" index="0" speed="13.89" length="273.79" shape="1404.33,-906.59 1597.93,-1100.19"/>
    </edge>
    <edge id="gneE3" from="gneJ3" to="gneJ0" priority="-1">
        <lane id="gneE3_0" index="0" speed="13.89" length="389.60" shape="-298.40,-96.80 -298.40,292.80"/>
    </edge>
    <edge id="gneE30" from="gneJ28" to="gneJ29" priority="-1">
        <lane id="gneE30_0" index="0" speed="13.89" length="295.47" shape="1598.40,-1101.33 1598.40,-1396.80"/>
    </edge>
    <edge id="gneE31" from="gneJ29" to="gneJ30" priority="-1">
        <lane id="gneE31_0" index="0" speed="13.89" length="293.60" shape="1603.20,-1401.60 1896.80,-1401.60"/>
    </edge>