<?xml version="1.0" encoding="utf-8"?>
<additional xmlns:xsi="http://www.w3.org/2001/XMLSchema-instance" xsi:noNamespaceSchemaLocation="http://sumo.dlr.de/xsd/additional_file.xsd">
	<parkingArea id="parkingArea_-gneE31_0_1" lane="-gneE31_0" friendlyPos="1" startPos="62.96" endPos="262.96" roadsideCapacity="16"></parkingArea>
	<parkingArea id="parkingArea_-gneE32_0_3" lane="-gneE32_0" friendlyPos="1" startPos="30.55" endPos="230.55" roadsideCapacity="14"></parkingArea>
	<parkingArea id="parkingArea_gneE30_0_2" lane="gneE30_0" friendlyPos="1" startPos="30.20" endPos="230.20" roadsideCapacity="10"></parkingArea>
	<parkingArea id="parkingArea_gneE33_0_0" lane="gneE33_0" friendlyPos="1" startPos="48.44" endPos="248.44" roadsideCapacity="16"></parkingArea>
</additional>