<?xml version="1.0" encoding="UTF-8"?>

<configuration xmlns:xsi="http://www.w3.org/2001/XMLSchema-instance" xsi:noNamespaceSchemaLocation="http://sumo.dlr.de/xsd/sumoConfiguration.xsd">

    <input>
        <net-file value="rings.net.xml"/>
        <route-files value="rings.routes.xml"/>
        <additional-files value="rings.add.xml"/>
    </input>

</configuration>
