<?xml version="1.0" encoding="UTF-8"?>

<!-- generated on Tuesday 25 June 2019 01:20:41 AM IST by Eclipse SUMO netedit Version 1.2.0
<configuration xmlns:xsi="http://www.w3.org/2001/XMLSchema-instance" xsi:noNamespaceSchemaLocation="http://sumo.dlr.de/xsd/netconvertConfiguration.xsd">

    <output>
        <output-file value="/home/tara/codes/parking_assist/src/rings.net.xml"/>
    </output>

    <processing>
        <offset.disable-normalization value="true"/>
    </processing>

    <junctions>
        <no-turnarounds value="true"/>
    </junctions>

    <netedit>
        <additional-files value="/home/tara/codes/parking_assist/src/rings.original_add.xml"/>
    </netedit>

</configuration>
-->

<additional xmlns:xsi="http://www.w3.org/2001/XMLSchema-instance" xsi:noNamespaceSchemaLocation="http://sumo.dlr.de/xsd/additional_file.xsd">
    <parkingArea id="parkingArea_-gneE43_0_0" lane="-gneE43_0" friendlyPos="1" startPos="1071.64" endPos="2071.64"/>
    <parkingArea id="parkingArea_-gneE44_0_1" lane="-gneE44_0" friendlyPos="1" startPos="4229.62" endPos="5229.62"/>
</additional>
