<?xml version="1.0" encoding="UTF-8"?>

<configuration xmlns:xsi="http://www.w3.org/2001/XMLSchema-instance" xsi:noNamespaceSchemaLocation="http://sumo.dlr.de/xsd/sumoConfiguration.xsd">

    <input>
        <net-file value="giant.net.xml"/>
        <route-files value="giant.routes.xml"/>
        <additional-files value="giant.add.xml"/>
    </input>

</configuration>
