<?xml version="1.0" encoding="UTF-8"?>

<!-- generated on Friday 21 June 2019 04:35:39 AM IST by Eclipse SUMO netedit Version 1.2.0
<configuration xmlns:xsi="http://www.w3.org/2001/XMLSchema-instance" xsi:noNamespaceSchemaLocation="http://sumo.dlr.de/xsd/netconvertConfiguration.xsd">

    <input>
        <sumo-net-file value="/home/tara/codes/aco/src/aco.net.xml"/>
    </input>

    <output>
        <output-file value="/home/tara/codes/aco/src/aco.net.xml"/>
    </output>

    <processing>
        <geometry.max-grade.fix value="false"/>
        <offset.disable-normalization value="true"/>
        <lefthand value="false"/>
    </processing>

    <junctions>
        <no-turnarounds value="true"/>
        <junctions.corner-detail value="5"/>
        <junctions.limit-turn-speed value="5.5"/>
        <rectangular-lane-cut value="false"/>
    </junctions>

    <pedestrian>
        <walkingareas value="false"/>
    </pedestrian>

</configuration>
-->

<net version="1.1" junctionCornerDetail="5" limitTurnSpeed="5.50" xmlns:xsi="http://www.w3.org/2001/XMLSchema-instance" xsi:noNamespaceSchemaLocation="http://sumo.dlr.de/xsd/net_file.xsd">

    <location netOffset="0.00,0.00" convBoundary="-600.00,-200.00,300.00,400.00" origBoundary="-10000000000.00,-10000000000.00,10000000000.00,10000000000.00" projParameter="!"/>

    <edge id=":gneJ0_0" function="internal">
        <lane id=":gneJ0_0_0" index="0" speed="13.89" length="27.20" shape="-508.00,313.60 -508.00,286.40"/>
        <lane id=":gneJ0_0_1" index="1" speed="13.89" length="27.20" shape="-504.80,313.60 -504.80,286.40"/>
        <lane id=":gneJ0_0_2" index="2" speed="13.89" length="27.20" shape="-501.60,313.60 -501.60,286.40"/>
    </edge>
    <edge id=":gneJ0_3" function="internal">
        <lane id=":gneJ0_3_0" index="0" speed="10.36" length="18.80" shape="-501.60,313.60 -500.65,306.95 -497.80,302.20 -493.05,299.35 -492.06,299.21"/>
    </edge>
    <edge id=":gneJ0_14" function="internal">
        <lane id=":gneJ0_14_0" index="0" speed="10.36" length="5.71" shape="-492.06,299.21 -486.40,298.40"/>
    </edge>
    <edge id=":gneJ0_4" function="internal">
        <lane id=":gneJ0_4_0" index="0" speed="12.28" length="34.84" shape="-486.40,308.00 -495.85,306.65 -502.60,302.60 -506.65,295.85 -508.00,286.40"/>
    </edge>
    <edge id=":gneJ0_5" function="internal">
        <lane id=":gneJ0_5_0" index="0" speed="11.36" length="29.67" shape="-486.40,304.80 -494.45,303.65 -500.20,300.20 -503.65,294.45 -504.80,286.40"/>
    </edge>
    <edge id=":gneJ0_6" function="internal">
        <lane id=":gneJ0_6_0" index="0" speed="10.36" length="24.51" shape="-486.40,301.60 -493.05,300.65 -497.80,297.80 -500.65,293.05 -501.60,286.40"/>
    </edge>
    <edge id=":gneJ0_7" function="internal">
        <lane id=":gneJ0_7_0" index="0" speed="6.51" length="9.03" shape="-492.00,286.40 -491.65,288.85 -490.60,290.60 -488.85,291.65 -486.40,292.00"/>
    </edge>
    <edge id=":gneJ0_8" function="internal">
        <lane id=":gneJ0_8_0" index="0" speed="8.00" length="14.19" shape="-495.20,286.40 -494.65,290.25 -493.00,293.00 -490.25,294.65 -486.40,295.20"/>
    </edge>
    <edge id=":gneJ0_9" function="internal">
        <lane id=":gneJ0_9_0" index="0" speed="9.26" length="19.35" shape="-498.40,286.40 -497.65,291.65 -495.40,295.40 -491.65,297.65 -486.40,298.40"/>
    </edge>
    <edge id=":gneJ0_10" function="internal">
        <lane id=":gneJ0_10_0" index="0" speed="6.51" length="9.03" shape="-513.60,292.00 -511.15,291.65 -509.40,290.60 -508.35,288.85 -508.00,286.40"/>
    </edge>
    <edge id=":gneJ0_11" function="internal">
        <lane id=":gneJ0_11_0" index="0" speed="13.89" length="27.20" shape="-513.60,292.00 -486.40,292.00"/>
        <lane id=":gneJ0_11_1" index="1" speed="13.89" length="27.20" shape="-513.60,295.20 -486.40,295.20"/>
        <lane id=":gneJ0_11_2" index="2" speed="13.89" length="27.20" shape="-513.60,298.40 -486.40,298.40"/>
    </edge>
    <edge id=":gneJ1_0" function="internal">
        <lane id=":gneJ1_0_0" index="0" speed="6.51" length="9.03" shape="-408.00,313.60 -408.35,311.15 -409.40,309.40 -411.15,308.35 -413.60,308.00"/>
    </edge>
    <edge id=":gneJ1_1" function="internal">
        <lane id=":gneJ1_1_0" index="0" speed="13.89" length="27.43" shape="-408.00,313.60 -407.50,304.98 -406.40,298.61 -405.30,292.94 -404.80,286.40"/>
        <lane id=":gneJ1_1_1" index="1" speed="13.89" length="27.43" shape="-404.80,313.60 -404.30,304.98 -403.20,298.61 -402.10,292.94 -401.60,286.40"/>
    </edge>
    <edge id=":gneJ1_3" function="internal">
        <lane id=":gneJ1_3_0" index="0" speed="9.84" length="21.99" shape="-401.60,313.60 -400.85,306.95 -398.60,302.20 -394.85,299.35 -389.60,298.40"/>
    </edge>
    <edge id=":gneJ1_4" function="internal">
        <lane id=":gneJ1_4_0" index="0" speed="13.89" length="24.00" shape="-389.60,308.00 -413.60,308.00"/>
        <lane id=":gneJ1_4_1" index="1" speed="13.89" length="24.00" shape="-389.60,304.80 -413.60,304.80"/>
        <lane id=":gneJ1_4_2" index="2" speed="13.89" length="24.00" shape="-389.60,301.60 -413.60,301.60"/>
    </edge>
    <edge id=":gneJ1_7" function="internal">
        <lane id=":gneJ1_7_0" index="0" speed="9.84" length="6.41" shape="-389.60,301.60 -394.85,300.65 -395.71,300.00"/>
    </edge>
    <edge id=":gneJ1_14" function="internal">
        <lane id=":gneJ1_14_0" index="0" speed="9.84" length="15.58" shape="-395.71,300.00 -398.60,297.80 -400.85,293.05 -401.60,286.40"/>
    </edge>
    <edge id=":gneJ1_8" function="internal">
        <lane id=":gneJ1_8_0" index="0" speed="6.51" length="9.03" shape="-395.20,286.40 -394.85,288.85 -393.80,290.60 -392.05,291.65 -389.60,292.00"/>
    </edge>
    <edge id=":gneJ1_9" function="internal">
        <lane id=":gneJ1_9_0" index="0" speed="10.36" length="24.51" shape="-398.40,286.40 -399.35,293.05 -402.20,297.80 -406.95,300.65 -413.60,301.60"/>
    </edge>
    <edge id=":gneJ1_10" function="internal">
        <lane id=":gneJ1_10_0" index="0" speed="7.33" length="11.73" shape="-413.60,292.00 -409.75,291.65 -407.00,290.60 -405.35,288.85 -404.80,286.40"/>
    </edge>
    <edge id=":gneJ1_11" function="internal">
        <lane id=":gneJ1_11_0" index="0" speed="13.89" length="24.00" shape="-413.60,292.00 -389.60,292.00"/>
        <lane id=":gneJ1_11_1" index="1" speed="13.89" length="24.00" shape="-413.60,295.20 -389.60,295.20"/>
        <lane id=":gneJ1_11_2" index="2" speed="13.89" length="24.00" shape="-413.60,298.40 -389.60,298.40"/>
    </edge>
    <edge id=":gneJ10_0" function="internal">
        <lane id=":gneJ10_0_0" index="0" speed="6.51" length="9.03" shape="-4.80,210.40 -5.15,207.95 -6.20,206.20 -7.95,205.15 -10.40,204.80"/>
    </edge>
    <edge id=":gneJ10_1" function="internal">
        <lane id=":gneJ10_1_0" index="0" speed="9.26" length="19.35" shape="-1.60,210.40 -0.85,205.15 1.40,201.40 5.15,199.15 10.40,198.40"/>
    </edge>
    <edge id=":gneJ10_2" function="internal">
        <lane id=":gneJ10_2_0" index="0" speed="6.51" length="9.03" shape="10.40,204.80 7.95,205.15 6.20,206.20 5.15,207.95 4.80,210.40"/>
    </edge>
    <edge id=":gneJ10_3" function="internal">
        <lane id=":gneJ10_3_0" index="0" speed="13.89" length="20.80" shape="10.40,204.80 -10.40,204.80"/>
        <lane id=":gneJ10_3_1" index="1" speed="13.89" length="20.80" shape="10.40,201.60 -10.40,201.60"/>
    </edge>
    <edge id=":gneJ10_5" function="internal">
        <lane id=":gneJ10_5_0" index="0" speed="13.89" length="20.80" shape="-10.40,195.20 10.40,195.20"/>
        <lane id=":gneJ10_5_1" index="1" speed="13.89" length="20.80" shape="-10.40,198.40 10.40,198.40"/>
    </edge>
    <edge id=":gneJ10_7" function="internal">
        <lane id=":gneJ10_7_0" index="0" speed="9.26" length="6.96" shape="-10.40,198.40 -5.15,199.15 -3.73,200.00"/>
    </edge>
    <edge id=":gneJ10_8" function="internal">
        <lane id=":gneJ10_8_0" index="0" speed="9.26" length="12.40" shape="-3.73,200.00 -1.40,201.40 0.85,205.15 1.60,210.40"/>
    </edge>
    <edge id=":gneJ11_0" function="internal">
        <lane id=":gneJ11_0_0" index="0" speed="6.51" length="9.03" shape="-108.00,210.40 -108.35,207.95 -109.40,206.20 -111.15,205.15 -113.60,204.80"/>
    </edge>
    <edge id=":gneJ11_1" function="internal">
        <lane id=":gneJ11_1_0" index="0" speed="13.89" length="20.80" shape="-108.00,210.40 -108.00,189.60"/>
        <lane id=":gneJ11_1_1" index="1" speed="13.89" length="20.80" shape="-104.80,210.40 -104.80,189.60"/>
        <lane id=":gneJ11_1_2" index="2" speed="13.89" length="20.80" shape="-101.60,210.40 -101.60,189.60"/>
    </edge>
    <edge id=":gneJ11_4" function="internal">
        <lane id=":gneJ11_4_0" index="0" speed="9.84" length="6.41" shape="-101.60,210.40 -100.65,205.15 -100.00,204.29"/>
    </edge>
    <edge id=":gneJ11_17" function="internal">
        <lane id=":gneJ11_17_0" index="0" speed="9.84" length="15.58" shape="-100.00,204.29 -97.80,201.40 -93.05,199.15 -86.40,198.40"/>
    </edge>
    <edge id=":gneJ11_5" function="internal">
        <lane id=":gneJ11_5_0" index="0" speed="6.51" length="9.03" shape="-86.40,204.80 -88.85,205.15 -90.60,206.20 -91.65,207.95 -92.00,210.40"/>
    </edge>
    <edge id=":gneJ11_6" function="internal">
        <lane id=":gneJ11_6_0" index="0" speed="13.89" length="27.20" shape="-86.40,204.80 -113.60,204.80"/>
        <lane id=":gneJ11_6_1" index="1" speed="13.89" length="27.20" shape="-86.40,201.60 -113.60,201.60"/>
    </edge>
    <edge id=":gneJ11_8" function="internal">
        <lane id=":gneJ11_8_0" index="0" speed="10.41" length="24.73" shape="-86.40,201.60 -94.45,200.85 -100.20,198.60 -103.65,194.85 -104.80,189.60"/>
    </edge>
    <edge id=":gneJ11_9" function="internal">
        <lane id=":gneJ11_9_0" index="0" speed="6.51" length="9.03" shape="-92.00,189.60 -91.65,192.05 -90.60,193.80 -88.85,194.85 -86.40,195.20"/>
    </edge>
    <edge id=":gneJ11_10" function="internal">
        <lane id=":gneJ11_10_0" index="0" speed="13.89" length="20.80" shape="-92.00,189.60 -92.00,210.40"/>
        <lane id=":gneJ11_10_1" index="1" speed="13.89" length="20.80" shape="-95.20,189.60 -95.20,210.40"/>
        <lane id=":gneJ11_10_2" index="2" speed="13.89" length="20.80" shape="-98.40,189.60 -98.40,210.40"/>
    </edge>
    <edge id=":gneJ11_13" function="internal">
        <lane id=":gneJ11_13_0" index="0" speed="9.84" length="6.41" shape="-98.40,189.60 -99.35,194.85 -100.00,195.71"/>
    </edge>
    <edge id=":gneJ11_18" function="internal">
        <lane id=":gneJ11_18_0" index="0" speed="9.84" length="15.58" shape="-100.00,195.71 -102.20,198.60 -106.95,200.85 -113.60,201.60"/>
    </edge>
    <edge id=":gneJ11_14" function="internal">
        <lane id=":gneJ11_14_0" index="0" speed="6.51" length="9.03" shape="-113.60,195.20 -111.15,194.85 -109.40,193.80 -108.35,192.05 -108.00,189.60"/>
    </edge>
    <edge id=":gneJ11_15" function="internal">
        <lane id=":gneJ11_15_0" index="0" speed="13.89" length="27.20" shape="-113.60,198.40 -86.40,198.40"/>
    </edge>
    <edge id=":gneJ11_16" function="internal">
        <lane id=":gneJ11_16_0" index="0" speed="9.84" length="21.99" shape="-113.60,198.40 -106.95,199.15 -102.20,201.40 -99.35,205.15 -98.40,210.40"/>
    </edge>
    <edge id=":gneJ12_0" function="internal">
        <lane id=":gneJ12_0_0" index="0" speed="6.51" length="9.03" shape="-208.00,210.40 -208.35,207.95 -209.40,206.20 -211.15,205.15 -213.60,204.80"/>
    </edge>
    <edge id=":gneJ12_1" function="internal">
        <lane id=":gneJ12_1_0" index="0" speed="13.89" length="20.80" shape="-208.00,210.40 -208.00,189.60"/>
        <lane id=":gneJ12_1_1" index="1" speed="13.89" length="20.80" shape="-204.80,210.40 -204.80,189.60"/>
        <lane id=":gneJ12_1_2" index="2" speed="13.89" length="20.80" shape="-201.60,210.40 -201.60,189.60"/>
    </edge>
    <edge id=":gneJ12_4" function="internal">
        <lane id=":gneJ12_4_0" index="0" speed="9.84" length="6.41" shape="-201.60,210.40 -200.65,205.15 -200.00,204.29"/>
    </edge>
    <edge id=":gneJ12_18" function="internal">
        <lane id=":gneJ12_18_0" index="0" speed="9.84" length="15.58" shape="-200.00,204.29 -197.80,201.40 -193.05,199.15 -186.40,198.40"/>
    </edge>
    <edge id=":gneJ12_5" function="internal">
        <lane id=":gneJ12_5_0" index="0" speed="6.51" length="9.03" shape="-186.40,204.80 -188.85,205.15 -190.60,206.20 -191.65,207.95 -192.00,210.40"/>
    </edge>
    <edge id=":gneJ12_6" function="internal">
        <lane id=":gneJ12_6_0" index="0" speed="13.89" length="27.20" shape="-186.40,204.80 -213.60,204.80"/>
        <lane id=":gneJ12_6_1" index="1" speed="13.89" length="27.20" shape="-186.40,201.60 -213.60,201.60"/>
    </edge>
    <edge id=":gneJ12_8" function="internal">
        <lane id=":gneJ12_8_0" index="0" speed="9.84" length="21.99" shape="-186.40,201.60 -193.05,200.85 -197.80,198.60 -200.65,194.85 -201.60,189.60"/>
    </edge>
    <edge id=":gneJ12_9" function="internal">
        <lane id=":gneJ12_9_0" index="0" speed="6.51" length="9.03" shape="-192.00,189.60 -191.65,192.05 -190.60,193.80 -188.85,194.85 -186.40,195.20"/>
    </edge>
    <edge id=":gneJ12_10" function="internal">
        <lane id=":gneJ12_10_0" index="0" speed="13.89" length="20.80" shape="-192.00,189.60 -192.00,210.40"/>
        <lane id=":gneJ12_10_1" index="1" speed="13.89" length="20.80" shape="-195.20,189.60 -195.20,210.40"/>
        <lane id=":gneJ12_10_2" index="2" speed="13.89" length="20.80" shape="-198.40,189.60 -198.40,210.40"/>
    </edge>
    <edge id=":gneJ12_13" function="internal">
        <lane id=":gneJ12_13_0" index="0" speed="9.84" length="6.41" shape="-198.40,189.60 -199.35,194.85 -200.00,195.71"/>
    </edge>
    <edge id=":gneJ12_19" function="internal">
        <lane id=":gneJ12_19_0" index="0" speed="9.84" length="15.58" shape="-200.00,195.71 -202.20,198.60 -206.95,200.85 -213.60,201.60"/>
    </edge>
    <edge id=":gneJ12_14" function="internal">
        <lane id=":gneJ12_14_0" index="0" speed="7.33" length="11.73" shape="-213.60,195.20 -209.75,194.85 -207.00,193.80 -205.35,192.05 -204.80,189.60"/>
    </edge>
    <edge id=":gneJ12_15" function="internal">
        <lane id=":gneJ12_15_0" index="0" speed="13.89" length="27.20" shape="-213.60,195.20 -186.40,195.20"/>
        <lane id=":gneJ12_15_1" index="1" speed="13.89" length="27.20" shape="-213.60,198.40 -186.40,198.40"/>
    </edge>
    <edge id=":gneJ12_17" function="internal">
        <lane id=":gneJ12_17_0" index="0" speed="9.84" length="21.99" shape="-213.60,198.40 -206.95,199.15 -202.20,201.40 -199.35,205.15 -198.40,210.40"/>
    </edge>
    <edge id=":gneJ13_0" function="internal">
        <lane id=":gneJ13_0_0" index="0" speed="6.51" length="9.03" shape="-304.80,210.40 -305.15,207.95 -306.20,206.20 -307.95,205.15 -310.40,204.80"/>
    </edge>
    <edge id=":gneJ13_1" function="internal">
        <lane id=":gneJ13_1_0" index="0" speed="9.26" length="19.35" shape="-301.60,210.40 -300.85,205.15 -298.60,201.40 -294.85,199.15 -289.60,198.40"/>
    </edge>
    <edge id=":gneJ13_2" function="internal">
        <lane id=":gneJ13_2_0" index="0" speed="6.51" length="9.03" shape="-289.60,204.80 -292.05,205.15 -293.80,206.20 -294.85,207.95 -295.20,210.40"/>
    </edge>
    <edge id=":gneJ13_3" function="internal">
        <lane id=":gneJ13_3_0" index="0" speed="13.89" length="20.80" shape="-289.60,204.80 -310.40,204.80"/>
        <lane id=":gneJ13_3_1" index="1" speed="13.89" length="20.80" shape="-289.60,201.60 -310.40,201.60"/>
    </edge>
    <edge id=":gneJ13_5" function="internal">
        <lane id=":gneJ13_5_0" index="0" speed="13.89" length="20.80" shape="-310.40,195.20 -289.60,195.20"/>
        <lane id=":gneJ13_5_1" index="1" speed="13.89" length="20.80" shape="-310.40,198.40 -289.60,198.40"/>
    </edge>
    <edge id=":gneJ13_7" function="internal">
        <lane id=":gneJ13_7_0" index="0" speed="9.26" length="6.96" shape="-310.40,198.40 -305.15,199.15 -303.73,200.00"/>
    </edge>
    <edge id=":gneJ13_8" function="internal">
        <lane id=":gneJ13_8_0" index="0" speed="9.26" length="12.40" shape="-303.73,200.00 -301.40,201.40 -299.15,205.15 -298.40,210.40"/>
    </edge>
    <edge id=":gneJ14_0" function="internal">
        <lane id=":gneJ14_0_0" index="0" speed="6.51" length="9.03" shape="-404.80,210.40 -405.15,207.95 -406.20,206.20 -407.95,205.15 -410.40,204.80"/>
    </edge>
    <edge id=":gneJ14_1" function="internal">
        <lane id=":gneJ14_1_0" index="0" speed="9.26" length="19.35" shape="-401.60,210.40 -400.85,205.15 -398.60,201.40 -394.85,199.15 -389.60,198.40"/>
    </edge>
    <edge id=":gneJ14_2" function="internal">
        <lane id=":gneJ14_2_0" index="0" speed="6.51" length="9.03" shape="-389.60,204.80 -392.05,205.15 -393.80,206.20 -394.85,207.95 -395.20,210.40"/>
    </edge>
    <edge id=":gneJ14_3" function="internal">
        <lane id=":gneJ14_3_0" index="0" speed="13.89" length="20.80" shape="-389.60,204.80 -410.40,204.80"/>
        <lane id=":gneJ14_3_1" index="1" speed="13.89" length="20.80" shape="-389.60,201.60 -410.40,201.60"/>
    </edge>
    <edge id=":gneJ14_5" function="internal">
        <lane id=":gneJ14_5_0" index="0" speed="13.89" length="20.80" shape="-410.40,195.20 -389.60,195.20"/>
        <lane id=":gneJ14_5_1" index="1" speed="13.89" length="20.80" shape="-410.40,198.40 -389.60,198.40"/>
    </edge>
    <edge id=":gneJ14_7" function="internal">
        <lane id=":gneJ14_7_0" index="0" speed="9.26" length="6.96" shape="-410.40,198.40 -405.15,199.15 -403.73,200.00"/>
    </edge>
    <edge id=":gneJ14_8" function="internal">
        <lane id=":gneJ14_8_0" index="0" speed="9.26" length="12.40" shape="-403.73,200.00 -401.40,201.40 -399.15,205.15 -398.40,210.40"/>
    </edge>
    <edge id=":gneJ15_0" function="internal">
        <lane id=":gneJ15_0_0" index="0" speed="13.89" length="24.00" shape="-508.00,210.40 -508.00,186.40"/>
        <lane id=":gneJ15_0_1" index="1" speed="13.89" length="24.00" shape="-504.80,210.40 -504.80,186.40"/>
        <lane id=":gneJ15_0_2" index="2" speed="13.89" length="24.00" shape="-501.60,210.40 -501.60,186.40"/>
    </edge>
    <edge id=":gneJ15_3" function="internal">
        <lane id=":gneJ15_3_0" index="0" speed="9.84" length="6.41" shape="-501.60,210.40 -500.65,205.15 -500.00,204.29"/>
    </edge>
    <edge id=":gneJ15_14" function="internal">
        <lane id=":gneJ15_14_0" index="0" speed="9.84" length="15.58" shape="-500.00,204.29 -497.80,201.40 -493.05,199.15 -486.40,198.40"/>
    </edge>
    <edge id=":gneJ15_4" function="internal">
        <lane id=":gneJ15_4_0" index="0" speed="6.51" length="9.03" shape="-486.40,204.80 -488.85,205.15 -490.60,206.20 -491.65,207.95 -492.00,210.40"/>
    </edge>
    <edge id=":gneJ15_5" function="internal">
        <lane id=":gneJ15_5_0" index="0" speed="10.36" length="24.51" shape="-486.40,201.60 -493.05,200.65 -497.80,197.80 -500.65,193.05 -501.60,186.40"/>
    </edge>
    <edge id=":gneJ15_6" function="internal">
        <lane id=":gneJ15_6_0" index="0" speed="7.33" length="11.73" shape="-492.00,186.40 -491.65,190.25 -490.60,193.00 -488.85,194.65 -486.40,195.20"/>
    </edge>
    <edge id=":gneJ15_7" function="internal">
        <lane id=":gneJ15_7_0" index="0" speed="13.89" length="24.00" shape="-492.00,186.40 -492.00,210.40"/>
        <lane id=":gneJ15_7_1" index="1" speed="13.89" length="24.00" shape="-495.20,186.40 -495.20,210.40"/>
        <lane id=":gneJ15_7_2" index="2" speed="13.89" length="24.00" shape="-498.40,186.40 -498.40,210.40"/>
    </edge>
    <edge id=":gneJ15_10" function="internal">
        <lane id=":gneJ15_10_0" index="0" speed="6.51" length="9.03" shape="-513.60,192.00 -511.15,191.65 -509.40,190.60 -508.35,188.85 -508.00,186.40"/>
    </edge>
    <edge id=":gneJ15_11" function="internal">
        <lane id=":gneJ15_11_0" index="0" speed="13.89" length="27.43" shape="-513.60,192.00 -504.98,192.50 -498.61,193.60 -492.94,194.70 -486.40,195.20"/>
        <lane id=":gneJ15_11_1" index="1" speed="13.89" length="27.43" shape="-513.60,195.20 -504.98,195.70 -498.61,196.80 -492.94,197.90 -486.40,198.40"/>
    </edge>
    <edge id=":gneJ15_13" function="internal">
        <lane id=":gneJ15_13_0" index="0" speed="9.84" length="21.99" shape="-513.60,198.40 -506.95,199.15 -502.20,201.40 -499.35,205.15 -498.40,210.40"/>
    </edge>
    <edge id=":gneJ2_0" function="internal">
        <lane id=":gneJ2_0_0" index="0" speed="6.51" length="9.03" shape="-308.00,313.60 -308.35,311.15 -309.40,309.40 -311.15,308.35 -313.60,308.00"/>
    </edge>
    <edge id=":gneJ2_1" function="internal">
        <lane id=":gneJ2_1_0" index="0" speed="13.89" length="27.43" shape="-308.00,313.60 -307.50,304.98 -306.40,298.61 -305.30,292.94 -304.80,286.40"/>
        <lane id=":gneJ2_1_1" index="1" speed="13.89" length="27.43" shape="-304.80,313.60 -304.30,304.98 -303.20,298.61 -302.10,292.94 -301.60,286.40"/>
    </edge>
    <edge id=":gneJ2_3" function="internal">
        <lane id=":gneJ2_3_0" index="0" speed="9.84" length="21.99" shape="-301.60,313.60 -300.85,306.95 -298.60,302.20 -294.85,299.35 -289.60,298.40"/>
    </edge>
    <edge id=":gneJ2_4" function="internal">
        <lane id=":gneJ2_4_0" index="0" speed="13.89" length="24.00" shape="-289.60,308.00 -313.60,308.00"/>
        <lane id=":gneJ2_4_1" index="1" speed="13.89" length="24.00" shape="-289.60,304.80 -313.60,304.80"/>
        <lane id=":gneJ2_4_2" index="2" speed="13.89" length="24.00" shape="-289.60,301.60 -313.60,301.60"/>
    </edge>
    <edge id=":gneJ2_7" function="internal">
        <lane id=":gneJ2_7_0" index="0" speed="9.84" length="6.41" shape="-289.60,301.60 -294.85,300.65 -295.71,300.00"/>
    </edge>
    <edge id=":gneJ2_14" function="internal">
        <lane id=":gneJ2_14_0" index="0" speed="9.84" length="15.58" shape="-295.71,300.00 -298.60,297.80 -300.85,293.05 -301.60,286.40"/>
    </edge>
    <edge id=":gneJ2_8" function="internal">
        <lane id=":gneJ2_8_0" index="0" speed="6.51" length="9.03" shape="-295.20,286.40 -294.85,288.85 -293.80,290.60 -292.05,291.65 -289.60,292.00"/>
    </edge>
    <edge id=":gneJ2_9" function="internal">
        <lane id=":gneJ2_9_0" index="0" speed="10.36" length="24.51" shape="-298.40,286.40 -299.35,293.05 -302.20,297.80 -306.95,300.65 -313.60,301.60"/>
    </edge>
    <edge id=":gneJ2_10" function="internal">
        <lane id=":gneJ2_10_0" index="0" speed="7.33" length="11.73" shape="-313.60,292.00 -309.75,291.65 -307.00,290.60 -305.35,288.85 -304.80,286.40"/>
    </edge>
    <edge id=":gneJ2_11" function="internal">
        <lane id=":gneJ2_11_0" index="0" speed="13.89" length="24.00" shape="-313.60,292.00 -289.60,292.00"/>
        <lane id=":gneJ2_11_1" index="1" speed="13.89" length="24.00" shape="-313.60,295.20 -289.60,295.20"/>
        <lane id=":gneJ2_11_2" index="2" speed="13.89" length="24.00" shape="-313.60,298.40 -289.60,298.40"/>
    </edge>
    <edge id=":gneJ22_0" function="internal">
        <lane id=":gneJ22_0_0" index="0" speed="6.51" length="9.03" shape="-208.00,10.40 -208.35,7.95 -209.40,6.20 -211.15,5.15 -213.60,4.80"/>
    </edge>
    <edge id=":gneJ22_1" function="internal">
        <lane id=":gneJ22_1_0" index="0" speed="13.89" length="20.80" shape="-208.00,10.40 -208.00,-10.40"/>
        <lane id=":gneJ22_1_1" index="1" speed="13.89" length="20.80" shape="-204.80,10.40 -204.80,-10.40"/>
        <lane id=":gneJ22_1_2" index="2" speed="13.89" length="20.80" shape="-201.60,10.40 -201.60,-10.40"/>
    </edge>
    <edge id=":gneJ22_4" function="internal">
        <lane id=":gneJ22_4_0" index="0" speed="9.84" length="6.41" shape="-201.60,10.40 -200.65,5.15 -200.00,4.29"/>
    </edge>
    <edge id=":gneJ22_17" function="internal">
        <lane id=":gneJ22_17_0" index="0" speed="9.84" length="15.58" shape="-200.00,4.29 -197.80,1.40 -193.05,-0.85 -186.40,-1.60"/>
    </edge>
    <edge id=":gneJ22_5" function="internal">
        <lane id=":gneJ22_5_0" index="0" speed="6.51" length="9.03" shape="-186.40,4.80 -188.85,5.15 -190.60,6.20 -191.65,7.95 -192.00,10.40"/>
    </edge>
    <edge id=":gneJ22_6" function="internal">
        <lane id=":gneJ22_6_0" index="0" speed="13.89" length="27.20" shape="-186.40,1.60 -213.60,1.60"/>
    </edge>
    <edge id=":gneJ22_7" function="internal">
        <lane id=":gneJ22_7_0" index="0" speed="9.84" length="21.99" shape="-186.40,1.60 -193.05,0.85 -197.80,-1.40 -200.65,-5.15 -201.60,-10.40"/>
    </edge>
    <edge id=":gneJ22_8" function="internal">
        <lane id=":gneJ22_8_0" index="0" speed="6.51" length="9.03" shape="-192.00,-10.40 -191.65,-7.95 -190.60,-6.20 -188.85,-5.15 -186.40,-4.80"/>
    </edge>
    <edge id=":gneJ22_9" function="internal">
        <lane id=":gneJ22_9_0" index="0" speed="13.89" length="20.80" shape="-192.00,-10.40 -192.00,10.40"/>
        <lane id=":gneJ22_9_1" index="1" speed="13.89" length="20.80" shape="-195.20,-10.40 -195.20,10.40"/>
        <lane id=":gneJ22_9_2" index="2" speed="13.89" length="20.80" shape="-198.40,-10.40 -198.40,10.40"/>
    </edge>
    <edge id=":gneJ22_12" function="internal">
        <lane id=":gneJ22_12_0" index="0" speed="9.84" length="6.41" shape="-198.40,-10.40 -199.35,-5.15 -200.00,-4.29"/>
    </edge>
    <edge id=":gneJ22_18" function="internal">
        <lane id=":gneJ22_18_0" index="0" speed="9.84" length="15.58" shape="-200.00,-4.29 -202.20,-1.40 -206.95,0.85 -213.60,1.60"/>
    </edge>
    <edge id=":gneJ22_13" function="internal">
        <lane id=":gneJ22_13_0" index="0" speed="6.51" length="9.03" shape="-213.60,-4.80 -211.15,-5.15 -209.40,-6.20 -208.35,-7.95 -208.00,-10.40"/>
    </edge>
    <edge id=":gneJ22_14" function="internal">
        <lane id=":gneJ22_14_0" index="0" speed="13.89" length="27.20" shape="-213.60,-4.80 -186.40,-4.80"/>
        <lane id=":gneJ22_14_1" index="1" speed="13.89" length="27.20" shape="-213.60,-1.60 -186.40,-1.60"/>
    </edge>
    <edge id=":gneJ22_16" function="internal">
        <lane id=":gneJ22_16_0" index="0" speed="10.41" length="24.73" shape="-213.60,-1.60 -205.55,-0.85 -199.80,1.40 -196.35,5.15 -195.20,10.40"/>
    </edge>
    <edge id=":gneJ23_0" function="internal">
        <lane id=":gneJ23_0_0" index="0" speed="13.89" length="24.00" shape="-508.00,10.40 -508.00,-13.60"/>
        <lane id=":gneJ23_0_1" index="1" speed="13.89" length="24.00" shape="-504.80,10.40 -504.80,-13.60"/>
        <lane id=":gneJ23_0_2" index="2" speed="13.89" length="24.00" shape="-501.60,10.40 -501.60,-13.60"/>
    </edge>
    <edge id=":gneJ23_3" function="internal">
        <lane id=":gneJ23_3_0" index="0" speed="9.84" length="6.41" shape="-501.60,10.40 -500.65,5.15 -500.00,4.29"/>
    </edge>
    <edge id=":gneJ23_14" function="internal">
        <lane id=":gneJ23_14_0" index="0" speed="9.84" length="15.58" shape="-500.00,4.29 -497.80,1.40 -493.05,-0.85 -486.40,-1.60"/>
    </edge>
    <edge id=":gneJ23_4" function="internal">
        <lane id=":gneJ23_4_0" index="0" speed="6.51" length="9.03" shape="-486.40,4.80 -488.85,5.15 -490.60,6.20 -491.65,7.95 -492.00,10.40"/>
    </edge>
    <edge id=":gneJ23_5" function="internal">
        <lane id=":gneJ23_5_0" index="0" speed="10.36" length="24.51" shape="-486.40,1.60 -493.05,0.65 -497.80,-2.20 -500.65,-6.95 -501.60,-13.60"/>
    </edge>
    <edge id=":gneJ23_6" function="internal">
        <lane id=":gneJ23_6_0" index="0" speed="7.33" length="11.73" shape="-492.00,-13.60 -491.65,-9.75 -490.60,-7.00 -488.85,-5.35 -486.40,-4.80"/>
    </edge>
    <edge id=":gneJ23_7" function="internal">
        <lane id=":gneJ23_7_0" index="0" speed="13.89" length="24.00" shape="-492.00,-13.60 -492.00,10.40"/>
        <lane id=":gneJ23_7_1" index="1" speed="13.89" length="24.00" shape="-495.20,-13.60 -495.20,10.40"/>
        <lane id=":gneJ23_7_2" index="2" speed="13.89" length="24.00" shape="-498.40,-13.60 -498.40,10.40"/>
    </edge>
    <edge id=":gneJ23_10" function="internal">
        <lane id=":gneJ23_10_0" index="0" speed="6.51" length="9.03" shape="-513.60,-8.00 -511.15,-8.35 -509.40,-9.40 -508.35,-11.15 -508.00,-13.60"/>
    </edge>
    <edge id=":gneJ23_11" function="internal">
        <lane id=":gneJ23_11_0" index="0" speed="13.89" length="27.43" shape="-513.60,-8.00 -504.98,-7.50 -498.61,-6.40 -492.94,-5.30 -486.40,-4.80"/>
        <lane id=":gneJ23_11_1" index="1" speed="13.89" length="27.43" shape="-513.60,-4.80 -504.98,-4.30 -498.61,-3.20 -492.94,-2.10 -486.40,-1.60"/>
    </edge>
    <edge id=":gneJ23_13" function="internal">
        <lane id=":gneJ23_13_0" index="0" speed="9.84" length="21.99" shape="-513.60,-1.60 -506.95,-0.85 -502.20,1.40 -499.35,5.15 -498.40,10.40"/>
    </edge>
    <edge id=":gneJ24_0" function="internal">
        <lane id=":gneJ24_0_0" index="0" speed="13.89" length="27.20" shape="-508.00,113.60 -508.00,86.40"/>
        <lane id=":gneJ24_0_1" index="1" speed="13.89" length="27.20" shape="-504.80,113.60 -504.80,86.40"/>
        <lane id=":gneJ24_0_2" index="2" speed="13.89" length="27.20" shape="-501.60,113.60 -501.60,86.40"/>
    </edge>
    <edge id=":gneJ24_3" function="internal">
        <lane id=":gneJ24_3_0" index="0" speed="10.36" length="7.98" shape="-501.60,113.60 -500.65,106.95 -500.00,105.87"/>
    </edge>
    <edge id=":gneJ24_16" function="internal">
        <lane id=":gneJ24_16_0" index="0" speed="10.36" length="16.53" shape="-500.00,105.87 -497.80,102.20 -493.05,99.35 -486.40,98.40"/>
    </edge>
    <edge id=":gneJ24_4" function="internal">
        <lane id=":gneJ24_4_0" index="0" speed="6.51" length="9.03" shape="-486.40,108.00 -488.85,108.35 -490.60,109.40 -491.65,111.15 -492.00,113.60"/>
    </edge>
    <edge id=":gneJ24_5" function="internal">
        <lane id=":gneJ24_5_0" index="0" speed="11.36" length="29.67" shape="-486.40,104.80 -494.45,103.65 -500.20,100.20 -503.65,94.45 -504.80,86.40"/>
    </edge>
    <edge id=":gneJ24_6" function="internal">