<?xml version="1.0" encoding="UTF-8"?>

<!-- generated on Thursday 13 June 2019 03:08:17 PM IST by Eclipse SUMO netedit Version 1.2.0
<configuration xmlns:xsi="http://www.w3.org/2001/XMLSchema-instance" xsi:noNamespaceSchemaLocation="http://sumo.dlr.de/xsd/netconvertConfiguration.xsd">

    <input>
        <sumo-net-file value="/home/tara/codes/aco/network/aco.net.xml"/>
    </input>

    <output>
        <output-file value="/home/tara/codes/aco/network/aco.net.xml"/>
    </output>

    <processing>
        <geometry.max-grade.fix value="false"/>
        <offset.disable-normalization value="true"/>
        <lefthand value="false"/>
    </processing>

    <junctions>
        <no-turnarounds value="true"/>
        <junctions.corner-detail value="5"/>
        <junctions.limit-turn-speed value="5.5"/>
        <rectangular-lane-cut value="false"/>
    </junctions>

    <pedestrian>
        <walkingareas value="false"/>
    </pedestrian>

</configuration>
-->

<net version="1.1" junctionCornerDetail="5" limitTurnSpeed="5.50" xmlns:xsi="http://www.w3.org/2001/XMLSchema-instance" xsi:noNamespaceSchemaLocation="http://sumo.dlr.de/xsd/net_file.xsd">

    <location netOffset="0.00,0.00" convBoundary="-600.00,-200.00,300.00,400.00" origBoundary="-10000000000.00,-10000000000.00,10000000000.00,10000000000.00" projParameter="!"/>

    <edge id=":gneJ0_0" function="internal">
        <lane id=":gneJ0_0_0" index="0" speed="13.89" length="30.62" shape="-511.20,313.60 -510.70,304.51 -509.60,298.29 -508.50,292.13 -508.00,283.20"/>
        <lane id=":gneJ0_0_1" index="1" speed="13.89" length="30.62" shape="-508.00,313.60 -507.50,304.51 -506.40,298.29 -505.30,292.13 -504.80,283.20"/>
        <lane id=":gneJ0_0_2" index="2" speed="13.89" length="30.62" shape="-504.80,313.60 -504.30,304.51 -503.20,298.29 -502.10,292.13 -501.60,283.20"/>
    </edge>
    <edge id=":gneJ0_3" function="internal">
        <lane id=":gneJ0_3_0" index="0" speed="10.36" length="16.53" shape="-501.60,313.60 -500.65,306.95 -497.80,302.20 -494.13,300.00"/>
    </edge>
    <edge id=":gneJ0_14" function="internal">
        <lane id=":gneJ0_14_0" index="0" speed="10.36" length="7.98" shape="-494.13,300.00 -493.05,299.35 -486.40,298.40"/>
    </edge>
    <edge id=":gneJ0_4" function="internal">
        <lane id=":gneJ0_4_0" index="0" speed="12.72" length="37.45" shape="-486.40,308.00 -495.85,306.45 -502.60,301.80 -506.65,294.05 -508.00,283.20"/>
    </edge>
    <edge id=":gneJ0_5" function="internal">
        <lane id=":gneJ0_5_0" index="0" speed="11.84" length="32.30" shape="-486.40,304.80 -494.45,303.45 -500.20,299.40 -503.65,292.65 -504.80,283.20"/>
    </edge>
    <edge id=":gneJ0_6" function="internal">
        <lane id=":gneJ0_6_0" index="0" speed="10.88" length="27.14" shape="-486.40,301.60 -493.05,300.45 -497.80,297.00 -500.65,291.25 -501.60,283.20"/>
    </edge>
    <edge id=":gneJ0_7" function="internal">
        <lane id=":gneJ0_7_0" index="0" speed="7.33" length="11.73" shape="-492.00,283.20 -491.65,287.05 -490.60,289.80 -488.85,291.45 -486.40,292.00"/>
    </edge>
    <edge id=":gneJ0_8" function="internal">
        <lane id=":gneJ0_8_0" index="0" speed="8.67" length="16.85" shape="-495.20,283.20 -494.65,288.45 -493.00,292.20 -490.25,294.45 -486.40,295.20"/>
    </edge>
    <edge id=":gneJ0_9" function="internal">
        <lane id=":gneJ0_9_0" index="0" speed="9.84" length="21.99" shape="-498.40,283.20 -497.65,289.85 -495.40,294.60 -491.65,297.45 -486.40,298.40"/>
    </edge>
    <edge id=":gneJ0_10" function="internal">
        <lane id=":gneJ0_10_0" index="0" speed="7.33" length="11.73" shape="-516.80,288.80 -512.95,288.45 -510.20,287.40 -508.55,285.65 -508.00,283.20"/>
    </edge>
    <edge id=":gneJ0_11" function="internal">
        <lane id=":gneJ0_11_0" index="0" speed="13.89" length="30.40" shape="-516.80,292.00 -486.40,292.00"/>
        <lane id=":gneJ0_11_1" index="1" speed="13.89" length="30.40" shape="-516.80,295.20 -486.40,295.20"/>
        <lane id=":gneJ0_11_2" index="2" speed="13.89" length="30.40" shape="-516.80,298.40 -486.40,298.40"/>
    </edge>
    <edge id=":gneJ1_0" function="internal">
        <lane id=":gneJ1_0_0" index="0" speed="6.51" length="9.03" shape="-411.20,313.60 -411.55,311.15 -412.60,309.40 -414.35,308.35 -416.80,308.00"/>
    </edge>
    <edge id=":gneJ1_1" function="internal">
        <lane id=":gneJ1_1_0" index="0" speed="8.00" length="14.19" shape="-408.00,313.60 -408.55,309.75 -410.20,307.00 -412.95,305.35 -416.80,304.80"/>
    </edge>
    <edge id=":gneJ1_2" function="internal">
        <lane id=":gneJ1_2_0" index="0" speed="13.89" length="27.43" shape="-408.00,313.60 -407.50,304.98 -406.40,298.61 -405.30,292.94 -404.80,286.40"/>
        <lane id=":gneJ1_2_1" index="1" speed="13.89" length="27.43" shape="-404.80,313.60 -404.30,304.98 -403.20,298.61 -402.10,292.94 -401.60,286.40"/>
    </edge>
    <edge id=":gneJ1_4" function="internal">
        <lane id=":gneJ1_4_0" index="0" speed="9.84" length="21.99" shape="-401.60,313.60 -400.85,306.95 -398.60,302.20 -394.85,299.35 -389.60,298.40"/>
    </edge>
    <edge id=":gneJ1_5" function="internal">
        <lane id=":gneJ1_5_0" index="0" speed="13.89" length="27.20" shape="-389.60,308.00 -416.80,308.00"/>
        <lane id=":gneJ1_5_1" index="1" speed="13.89" length="27.20" shape="-389.60,304.80 -416.80,304.80"/>
        <lane id=":gneJ1_5_2" index="2" speed="13.89" length="27.20" shape="-389.60,301.60 -416.80,301.60"/>
    </edge>
    <edge id=":gneJ1_8" function="internal">
        <lane id=":gneJ1_8_0" index="0" speed="9.84" length="21.99" shape="-389.60,301.60 -394.85,300.65 -398.60,297.80 -400.85,293.05 -401.60,286.40"/>
    </edge>
    <edge id=":gneJ1_9" function="internal">
        <lane id=":gneJ1_9_0" index="0" speed="6.51" length="9.03" shape="-395.20,286.40 -394.85,288.85 -393.80,290.60 -392.05,291.65 -389.60,292.00"/>
    </edge>
    <edge id=":gneJ1_10" function="internal">
        <lane id=":gneJ1_10_0" index="0" speed="10.88" length="8.93" shape="-398.40,286.40 -399.55,293.05 -400.83,294.82"/>
    </edge>
    <edge id=":gneJ1_15" function="internal">
        <lane id=":gneJ1_15_0" index="0" speed="10.88" length="18.21" shape="-400.83,294.82 -403.00,297.80 -408.75,300.65 -416.80,301.60"/>
    </edge>
    <edge id=":gneJ1_11" function="internal">
        <lane id=":gneJ1_11_0" index="0" speed="8.10" length="14.57" shape="-416.80,292.00 -411.55,291.65 -407.80,290.60 -405.55,288.85 -404.80,286.40"/>
    </edge>
    <edge id=":gneJ1_12" function="internal">
        <lane id=":gneJ1_12_0" index="0" speed="13.89" length="27.20" shape="-416.80,292.00 -389.60,292.00"/>
        <lane id=":gneJ1_12_1" index="1" speed="13.89" length="27.20" shape="-416.80,295.20 -389.60,295.20"/>
        <lane id=":gneJ1_12_2" index="2" speed="13.89" length="27.20" shape="-416.80,298.40 -389.60,298.40"/>
    </edge>
    <edge id=":gneJ10_0" function="internal">
        <lane id=":gneJ10_0_0" index="0" speed="6.51" length="9.03" shape="-4.80,210.40 -5.15,207.95 -6.20,206.20 -7.95,205.15 -10.40,204.80"/>
    </edge>
    <edge id=":gneJ10_1" function="internal">
        <lane id=":gneJ10_1_0" index="0" speed="9.26" length="19.35" shape="-1.60,210.40 -0.85,205.15 1.40,201.40 5.15,199.15 10.40,198.40"/>
    </edge>
    <edge id=":gneJ10_2" function="internal">
        <lane id=":gneJ10_2_0" index="0" speed="6.51" length="9.03" shape="10.40,204.80 7.95,205.15 6.20,206.20 5.15,207.95 4.80,210.40"/>
    </edge>
    <edge id=":gneJ10_3" function="internal">
        <lane id=":gneJ10_3_0" index="0" speed="13.89" length="20.80" shape="10.40,204.80 -10.40,204.80"/>
        <lane id=":gneJ10_3_1" index="1" speed="13.89" length="20.80" shape="10.40,201.60 -10.40,201.60"/>
    </edge>
    <edge id=":gneJ10_5" function="internal">
        <lane id=":gneJ10_5_0" index="0" speed="13.89" length="20.80" shape="-10.40,195.20 10.40,195.20"/>
        <lane id=":gneJ10_5_1" index="1" speed="13.89" length="20.80" shape="-10.40,198.40 10.40,198.40"/>
    </edge>
    <edge id=":gneJ10_7" function="internal">
        <lane id=":gneJ10_7_0" index="0" speed="9.26" length="6.96" shape="-10.40,198.40 -5.15,199.15 -3.73,200.00"/>
    </edge>
    <edge id=":gneJ10_8" function="internal">
        <lane id=":gneJ10_8_0" index="0" speed="9.26" length="12.40" shape="-3.73,200.00 -1.40,201.40 0.85,205.15 1.60,210.40"/>
    </edge>
    <edge id=":gneJ11_0" function="internal">
        <lane id=":gneJ11_0_0" index="0" speed="6.51" length="9.03" shape="-108.00,210.40 -108.35,207.95 -109.40,206.20 -111.15,205.15 -113.60,204.80"/>
    </edge>
    <edge id=":gneJ11_1" function="internal">
        <lane id=":gneJ11_1_0" index="0" speed="13.89" length="24.35" shape="-108.00,210.40 -108.00,186.05"/>
        <lane id=":gneJ11_1_1" index="1" speed="13.89" length="24.35" shape="-104.80,210.40 -104.80,186.05"/>
        <lane id=":gneJ11_1_2" index="2" speed="13.89" length="24.35" shape="-101.60,210.40 -101.60,186.05"/>
    </edge>
    <edge id=":gneJ11_4" function="internal">
        <lane id=":gneJ11_4_0" index="0" speed="13.89" length="3.93" shape="-101.60,210.40 -100.00,206.81"/>
    </edge>
    <edge id=":gneJ11_5" function="internal">
        <lane id=":gneJ11_5_0" index="0" speed="13.89" length="3.39" shape="-101.60,210.40 -100.00,207.42"/>
    </edge>
    <edge id=":gneJ11_27" function="internal">
        <lane id=":gneJ11_27_0" index="0" speed="13.89" length="47.18" shape="-100.00,206.81 -98.96,204.46 -91.02,198.21 -77.80,191.64 -59.30,184.75"/>
    </edge>
    <edge id=":gneJ11_28" function="internal">
        <lane id=":gneJ11_28_0" index="0" speed="13.89" length="45.78" shape="-100.00,207.42 -98.79,205.15 -90.34,201.40 -76.27,199.15 -56.56,198.40"/>
    </edge>
    <edge id=":gneJ11_6" function="internal">
        <lane id=":gneJ11_6_0" index="0" speed="12.61" length="36.81" shape="-56.56,204.80 -72.07,205.15 -83.14,206.20 -89.79,207.95 -92.00,210.40"/>
    </edge>
    <edge id=":gneJ11_7" function="internal">
        <lane id=":gneJ11_7_0" index="0" speed="13.89" length="57.04" shape="-56.56,204.80 -113.60,204.80"/>
        <lane id=":gneJ11_7_1" index="1" speed="13.89" length="57.04" shape="-56.56,201.60 -113.60,201.60"/>
    </edge>
    <edge id=":gneJ11_9" function="internal">
        <lane id=":gneJ11_9_0" index="0" speed="13.89" length="54.19" shape="-56.56,201.60 -77.67,200.63 -92.74,197.71 -101.79,192.86 -104.80,186.05"/>
    </edge>
    <edge id=":gneJ11_10" function="internal">
        <lane id=":gneJ11_10_0" index="0" speed="7.43" length="23.65" shape="-56.56,201.60 -62.26,199.39 -64.86,194.30 -64.00,188.64 -59.30,184.75"/>
    </edge>
    <edge id=":gneJ11_11" function="internal">
        <lane id=":gneJ11_11_0" index="0" speed="5.98" length="14.58" shape="-57.27,190.82 -62.16,192.73 -63.67,194.10 -61.80,194.93 -56.56,195.20"/>
    </edge>
    <edge id=":gneJ11_12" function="internal">
        <lane id=":gneJ11_12_0" index="0" speed="13.89" length="43.53" shape="-57.27,190.82 -73.87,196.78 -85.72,202.03 -92.83,206.57 -95.20,210.40"/>
    </edge>
    <edge id=":gneJ11_13" function="internal">
        <lane id=":gneJ11_13_0" index="0" speed="13.89" length="57.61" shape="-57.27,190.82 -68.67,194.34 -85.24,198.99 -101.91,203.06 -113.60,204.80"/>
        <lane id=":gneJ11_13_1" index="1" speed="13.89" length="57.61" shape="-58.28,187.78 -69.52,191.27 -85.75,195.88 -102.07,199.89 -113.60,201.60"/>
    </edge>
    <edge id=":gneJ11_15" function="internal">
        <lane id=":gneJ11_15_0" index="0" speed="12.98" length="48.67" shape="-58.28,187.78 -74.69,192.62 -88.51,194.83 -98.04,193.08 -101.60,186.05"/>
    </edge>
    <edge id=":gneJ11_16" function="internal">
        <lane id=":gneJ11_16_0" index="0" speed="10.82" length="33.43" shape="-92.00,186.05 -90.02,188.11 -84.08,188.08 -74.17,185.94 -60.31,181.71"/>
    </edge>
    <edge id=":gneJ11_17" function="internal">
        <lane id=":gneJ11_17_0" index="0" speed="12.90" length="38.53" shape="-92.00,186.05 -89.79,190.06 -83.14,192.91 -72.07,194.63 -56.56,195.20"/>
    </edge>
    <edge id=":gneJ11_18" function="internal">
        <lane id=":gneJ11_18_0" index="0" speed="13.89" length="24.35" shape="-92.00,186.05 -92.00,210.40"/>
        <lane id=":gneJ11_18_1" index="1" speed="13.89" length="24.35" shape="-95.20,186.05 -95.20,210.40"/>
        <lane id=":gneJ11_18_2" index="2" speed="13.89" length="24.35" shape="-98.40,186.05 -98.40,210.40"/>
    </edge>
    <edge id=":gneJ11_21" function="internal">
        <lane id=":gneJ11_21_0" index="0" speed="10.42" length="8.15" shape="-98.40,186.05 -99.35,192.86 -100.00,193.96"/>
    </edge>
    <edge id=":gneJ11_29" function="internal">
        <lane id=":gneJ11_29_0" index="0" speed="10.42" length="16.64" shape="-100.00,193.96 -102.20,197.71 -106.95,200.63 -113.60,201.60"/>
    </edge>
    <edge id=":gneJ11_22" function="internal">
        <lane id=":gneJ11_22_0" index="0" speed="7.41" length="12.03" shape="-113.60,195.20 -111.15,194.63 -109.40,192.91 -108.35,190.06 -108.00,186.05"/>
    </edge>
    <edge id=":gneJ11_23" function="internal">
        <lane id=":gneJ11_23_0" index="0" speed="13.89" length="55.57" shape="-113.60,195.20 -102.39,193.54 -86.76,189.64 -71.23,185.15 -60.31,181.71"/>
        <lane id=":gneJ11_23_1" index="1" speed="13.89" length="55.57" shape="-113.60,198.40 -102.23,196.71 -86.26,192.76 -70.38,188.21 -59.30,184.75"/>
    </edge>
    <edge id=":gneJ11_25" function="internal">
        <lane id=":gneJ11_25_0" index="0" speed="13.89" length="57.04" shape="-113.60,198.40 -56.56,198.40"/>
    </edge>
    <edge id=":gneJ11_26" function="internal">
        <lane id=":gneJ11_26_0" index="0" speed="9.84" length="21.99" shape="-113.60,198.40 -106.95,199.15 -102.20,201.40 -99.35,205.15 -98.40,210.40"/>
    </edge>
    <edge id=":gneJ12_0" function="internal">
        <lane id=":gneJ12_0_0" index="0" speed="12.61" length="36.81" shape="-208.00,210.40 -210.21,207.95 -216.86,206.20 -227.93,205.15 -243.44,204.80"/>
    </edge>
    <edge id=":gneJ12_1" function="internal">
        <lane id=":gneJ12_1_0" index="0" speed="13.89" length="40.94" shape="-208.00,210.40 -210.17,206.17 -216.68,201.50 -227.53,196.38 -242.73,190.82"/>
    </edge>
    <edge id=":gneJ12_2" function="internal">
        <lane id=":gneJ12_2_0" index="0" speed="13.89" length="24.35" shape="-208.00,210.40 -208.00,186.05"/>
        <lane id=":gneJ12_2_1" index="1" speed="13.89" length="24.35" shape="-204.80,210.40 -204.80,186.05"/>
        <lane id=":gneJ12_2_2" index="2" speed="13.89" length="24.35" shape="-201.60,210.40 -201.60,186.05"/>
    </edge>
    <edge id=":gneJ12_5" function="internal">
        <lane id=":gneJ12_5_0" index="0" speed="9.84" length="6.41" shape="-201.60,210.40 -200.65,205.15 -200.00,204.29"/>
    </edge>
    <edge id=":gneJ12_27" function="internal">
        <lane id=":gneJ12_27_0" index="0" speed="9.84" length="15.58" shape="-200.00,204.29 -197.80,201.40 -193.05,199.15 -186.40,198.40"/>
    </edge>
    <edge id=":gneJ12_6" function="internal">
        <lane id=":gneJ12_6_0" index="0" speed="6.51" length="9.03" shape="-186.40,204.80 -188.85,205.15 -190.60,206.20 -191.65,207.95 -192.00,210.40"/>
    </edge>
    <edge id=":gneJ12_7" function="internal">
        <lane id=":gneJ12_7_0" index="0" speed="13.89" length="57.04" shape="-186.40,204.80 -243.44,204.80"/>
        <lane id=":gneJ12_7_1" index="1" speed="13.89" length="57.04" shape="-186.40,201.60 -243.44,201.60"/>
    </edge>
    <edge id=":gneJ12_9" function="internal">
        <lane id=":gneJ12_9_0" index="0" speed="13.89" length="57.10" shape="-186.40,201.60 -197.93,199.89 -214.25,195.88 -230.48,191.27 -241.72,187.78"/>
    </edge>
    <edge id=":gneJ12_10" function="internal">
        <lane id=":gneJ12_10_0" index="0" speed="10.42" length="24.79" shape="-186.40,201.60 -193.05,200.63 -197.80,197.71 -200.65,192.86 -201.60,186.05"/>
    </edge>
    <edge id=":gneJ12_11" function="internal">
        <lane id=":gneJ12_11_0" index="0" speed="7.41" length="12.03" shape="-192.00,186.05 -191.65,190.06 -190.60,192.91 -188.85,194.63 -186.40,195.20"/>
    </edge>
    <edge id=":gneJ12_12" function="internal">
        <lane id=":gneJ12_12_0" index="0" speed="13.89" length="24.35" shape="-192.00,186.05 -192.00,210.40"/>
        <lane id=":gneJ12_12_1" index="1" speed="13.89" length="24.35" shape="-195.20,186.05 -195.20,210.40"/>
        <lane id=":gneJ12_12_2" index="2" speed="13.89" length="24.35" shape="-198.40,186.05 -198.40,210.40"/>
    </edge>
    <edge id=":gneJ12_15" function="internal">
        <lane id=":gneJ12_15_0" index="0" speed="13.89" length="4.18" shape="-198.40,186.05 -200.00,189.92"/>
    </edge>
    <edge id=":gneJ12_16" function="internal">
        <lane id=":gneJ12_16_0" index="0" speed="12.98" length="3.54" shape="-198.40,186.05 -200.00,189.22"/>
    </edge>
    <edge id=":gneJ12_28" function="internal">
        <lane id=":gneJ12_28_0" index="0" speed="13.89" length="47.02" shape="-200.00,189.92 -201.21,192.86 -209.66,197.71 -223.73,200.63 -243.44,201.60"/>
    </edge>
    <edge id=":gneJ12_29" function="internal">
        <lane id=":gneJ12_29_0" index="0" speed="12.98" length="45.12" shape="-200.00,189.22 -201.96,193.08 -211.49,194.83 -225.31,192.62 -241.72,187.78"/>
    </edge>
    <edge id=":gneJ12_17" function="internal">
        <lane id=":gneJ12_17_0" index="0" speed="10.82" length="33.43" shape="-239.69,181.71 -225.83,185.94 -215.92,188.08 -209.98,188.11 -208.00,186.05"/>
    </edge>
    <edge id=":gneJ12_18" function="internal">
        <lane id=":gneJ12_18_0" index="0" speed="13.89" length="55.57" shape="-239.69,181.71 -228.77,185.15 -213.24,189.64 -197.61,193.54 -186.40,195.20"/>
        <lane id=":gneJ12_18_1" index="1" speed="13.89" length="55.57" shape="-240.70,184.75 -229.62,188.21 -213.74,192.76 -197.77,196.71 -186.40,198.40"/>
    </edge>
    <edge id=":gneJ12_20" function="internal">
        <lane id=":gneJ12_20_0" index="0" speed="13.89" length="53.65" shape="-240.70,184.75 -220.80,192.04 -206.58,198.74 -198.04,204.86 -195.20,210.40"/>
    </edge>
    <edge id=":gneJ12_21" function="internal">
        <lane id=":gneJ12_21_0" index="0" speed="7.43" length="23.65" shape="-240.70,184.75 -236.00,188.64 -235.14,194.30 -237.74,199.39 -243.44,201.60"/>
    </edge>
    <edge id=":gneJ12_22" function="internal">
        <lane id=":gneJ12_22_0" index="0" speed="5.98" length="14.58" shape="-243.44,195.20 -238.20,194.93 -236.33,194.10 -237.84,192.73 -242.73,190.82"/>
    </edge>
    <edge id=":gneJ12_23" function="internal">
        <lane id=":gneJ12_23_0" index="0" speed="13.38" length="41.57" shape="-243.44,195.20 -226.53,194.63 -214.46,192.91 -207.21,190.06 -204.80,186.05"/>
    </edge>
    <edge id=":gneJ12_24" function="internal">
        <lane id=":gneJ12_24_0" index="0" speed="13.89" length="57.04" shape="-243.44,195.20 -186.40,195.20"/>
        <lane id=":gneJ12_24_1" index="1" speed="13.89" length="57.04" shape="-243.44,198.40 -186.40,198.40"/>
    </edge>
    <edge id=":gneJ12_26" function="internal">
        <lane id=":gneJ12_26_0" index="0" speed="13.89" length="49.17" shape="-243.44,198.40 -223.73,199.15 -209.66,201.40 -201.21,205.15 -198.40,210.40"/>
    </edge>
    <edge id=":gneJ13_0" function="internal">
        <lane id=":gneJ13_0_0" index="0" speed="6.51" length="9.03" shape="-304.80,210.40 -305.15,207.95 -306.20,206.20 -307.95,205.15 -310.40,204.80"/>
    </edge>
    <edge id=":gneJ13_1" function="internal">
        <lane id=":gneJ13_1_0" index="0" speed="9.26" length="19.35" shape="-301.60,210.40 -300.85,205.15 -298.60,201.40 -294.85,199.15 -289.60,198.40"/>
    </edge>
    <edge id=":gneJ13_2" function="internal">
        <lane id=":gneJ13_2_0" index="0" speed="6.51" length="9.03" shape="-289.60,204.80 -292.05,205.15 -293.80,206.20 -294.85,207.95 -295.20,210.40"/>
    </edge>
    <edge id=":gneJ13_3" function="internal">
        <lane id=":gneJ13_3_0" index="0" speed="13.89" length="20.80" shape="-289.60,204.80 -310.40,204.80"/>
        <lane id=":gneJ13_3_1" index="1" speed="13.89" length="20.80" shape="-289.60,201.60 -310.40,201.60"/>
    </edge>
    <edge id=":gneJ13_5" function="internal">
        <lane id=":gneJ13_5_0" index="0" speed="13.89" length="20.80" shape="-310.40,195.20 -289.60,195.20"/>
        <lane id=":gneJ13_5_1" index="1" speed="13.89" length="20.80" shape="-310.40,198.40 -289.60,198.40"/>
    </edge>
    <edge id=":gneJ13_7" function="internal">
        <lane id=":gneJ13_7_0" index="0" speed="9.26" length="6.96" shape="-310.40,198.40 -305.15,199.15 -303.73,200.00"/>
    </edge>
    <edge id=":gneJ13_8" function="internal">
        <lane id=":gneJ13_8_0" index="0" speed="9.26" length="12.40" shape="-303.73,200.00 -301.40,201.40 -299.15,205.15 -298.40,210.40"/>
    </edge>
    <edge id=":gneJ14_0" function="internal">
        <lane id=":gneJ14_0_0" index="0" speed="6.51" length="9.03" shape="-404.80,210.40 -405.15,207.95 -406.20,206.20 -407.95,205.15 -410.40,204.80"/>
    </edge>
    <edge id=":gneJ14_1" function="internal">
        <lane id=":gneJ14_1_0" index="0" speed="9.26" length="19.35" shape="-401.60,210.40 -400.85,205.15 -398.60,201.40 -394.85,199.15 -389.60,198.40"/>
    </edge>
    <edge id=":gneJ14_2" function="internal">
        <lane id=":gneJ14_2_0" index="0" speed="6.51" length="9.03" shape="-389.60,204.80 -392.05,205.15 -393.80,206.20 -394.85,207.95 -395.20,210.40"/>
    </edge>
    <edge id=":gneJ14_3" function="internal">
        <lane id=":gneJ14_3_0" index="0" speed="13.89" length="20.80" shape="-389.60,204.80 -410.40,204.80"/>
        <lane id=":gneJ14_3_1" index="1" speed="13.89" length="20.80" shape="-389.60,201.60 -410.40,201.60"/>
    </edge>
    <edge id=":gneJ14_5" function="internal">
        <lane id=":gneJ14_5_0" index="0" speed="13.89" length="20.80" shape="-410.40,195.20 -389.60,195.20"/>
        <lane id=":gneJ14_5_1" index="1" speed="13.89" length="20.80" shape="-410.40,198.40 -389.60,198.40"/>
    </edge>
    <edge id=":gneJ14_7" function="internal">
        <lane id=":gneJ14_7_0" index="0" speed="9.26" length="6.96" shape="-410.40,198.40 -405.15,199.15 -403.73,200.00"/>
    </edge>
    <edge id=":gneJ14_8" function="internal">
        <lane id=":gneJ14_8_0" index="0" speed="9.26" length="12.40" shape="-403.73,200.00 -401.40,201.40 -399.15,205.15 -398.40,210.40"/>
    </edge>
    <edge id=":gneJ15_0" function="internal">
        <lane id=":gneJ15_0_0" index="0" speed="13.89" length="27.20" shape="-508.00,210.40 -508.00,183.20"/>
        <lane id=":gneJ15_0_1" index="1" speed="13.89" length="27.20" shape="-504.80,210.40 -504.80,183.20"/>
        <lane id=":gneJ15_0_2" index="2" speed="13.89" length="27.20" shape="-501.60,210.40 -501.60,183.20"/>
    </edge>
    <edge id=":gneJ15_3" function="internal">
        <lane id=":gneJ15_3_0" index="0" speed="9.84" length="21.99" shape="-501.60,210.40 -500.65,205.15 -497.80,201.40 -493.05,199.15 -486.40,198.40"/>
    </edge>
    <edge id=":gneJ15_4" function="internal">
        <lane id=":gneJ15_4_0" index="0" speed="6.51" length="9.03" shape="-486.40,204.80 -488.85,205.15 -490.60,206.20 -491.65,207.95 -492.00,210.40"/>
    </edge>
    <edge id=":gneJ15_5" function="internal">
        <lane id=":gneJ15_5_0" index="0" speed="10.88" length="8.93" shape="-486.40,201.60 -493.05,200.45 -494.82,199.17"/>
    </edge>
    <edge id=":gneJ15_15" function="internal">
        <lane id=":gneJ15_15_0" index="0" speed="10.88" length="18.21" shape="-494.82,199.17 -497.80,197.00 -500.65,191.25 -501.60,183.20"/>
    </edge>
    <edge id=":gneJ15_6" function="internal">
        <lane id=":gneJ15_6_0" index="0" speed="8.10" length="14.57" shape="-492.00,183.20 -491.65,188.45 -490.60,192.20 -488.85,194.45 -486.40,195.20"/>
    </edge>
    <edge id=":gneJ15_7" function="internal">
        <lane id=":gneJ15_7_0" index="0" speed="13.89" length="27.20" shape="-492.00,183.20 -492.00,210.40"/>
        <lane id=":gneJ15_7_1" index="1" speed="13.89" length="27.20" shape="-495.20,183.20 -495.20,210.40"/>
        <lane id=":gneJ15_7_2" index="2" speed="13.89" length="27.20" shape="-498.40,183.20 -498.40,210.40"/>
    </edge>
    <edge id=":gneJ15_10" function="internal">
        <lane id=":gneJ15_10_0" index="0" speed="6.51" length="9.03" shape="-513.60,188.80 -511.15,188.45 -509.40,187.40 -508.35,185.65 -508.00,183.20"/>
    </edge>
    <edge id=":gneJ15_11" function="internal">
        <lane id=":gneJ15_11_0" index="0" speed="8.00" length="14.19" shape="-513.60,192.00 -509.75,191.45 -507.00,189.80 -505.35,187.05 -504.80,183.20"/>
    </edge>
    <edge id=":gneJ15_12" function="internal">
        <lane id=":gneJ15_12_0" index="0" speed="13.89" length="27.43" shape="-513.60,192.00 -504.98,192.50 -498.61,193.60 -492.94,194.70 -486.40,195.20"/>
        <lane id=":gneJ15_12_1" index="1" speed="13.89" length="27.43" shape="-513.60,195.20 -504.98,195.70 -498.61,196.80 -492.94,197.90 -486.40,198.40"/>
    </edge>
    <edge id=":gneJ15_14" function="internal">
        <lane id=":gneJ15_14_0" index="0" speed="9.84" length="21.99" shape="-513.60,198.40 -506.95,199.15 -502.20,201.40 -499.35,205.15 -498.40,210.40"/>
    </edge>
    <edge id=":gneJ2_0" function="internal">
        <lane id=":gneJ2_0_0" index="0" speed="6.51" length="9.03" shape="-311.20,313.60 -311.55,311.15 -312.60,309.40 -314.35,308.35 -316.80,308.00"/>
    </edge>
    <edge id=":gneJ2_1" function="internal">
        <lane id=":gneJ2_1_0" index="0" speed="8.00" length="14.19" shape="-308.00,313.60 -308.55,309.75 -310.20,307.00 -312.95,305.35 -316.80,304.80"/>
    </edge>
    <edge id=":gneJ2_2" function="internal">
        <lane id=":gneJ2_2_0" index="0" speed="13.89" length="27.43" shape="-308.00,313.60 -307.50,304.98 -306.40,298.61 -305.30,292.94 -304.80,286.40"/>
        <lane id=":gneJ2_2_1" index="1" speed="13.89" length="27.43" shape="-304.80,313.60 -304.30,304.98 -303.20,298.61 -302.10,292.94 -301.60,286.40"/>
    </edge>
    <edge id=":gneJ2_4" function="internal">
        <lane id=":gneJ2_4_0" index="0" speed="9.84" length="21.99" shape="-301.60,313.60 -300.85,306.95 -298.60,302.20 -294.85,299.35 -289.60,298.40"/>
    </edge>
    <edge id=":gneJ2_5" function="internal">
        <lane id=":gneJ2_5_0" index="0" speed="13.89" length="27.20" shape="-289.60,308.00 -316.80,308.00"/>
        <lane id=":gneJ2_5_1" index="1" speed="13.89" length="27.20" shape="-289.60,304.80 -316.80,304.80"/>
        <lane id=":gneJ2_5_2" index="2" speed="13.89" length="27.20" shape="-289.60,301.60 -316.80,301.60"/>
    </edge>
    <edge id=":gneJ2_8" function="internal">
        <lane id=":gneJ2_8_0" index="0" speed="9.84" length="21.99" shape="-289.60,301.60 -294.85,300.65 -298.60,297.80 -300.85,293.05 -301.60,286.40"/>
    </edge>
    <edge id=":gneJ2_9" function="internal">
        <lane id=":gneJ2_9_0" index="0" speed="6.51" length="9.03" shape="-295.20,286.40 -294.85,288.85 -293.80,290.60 -292.05,291.65 -289.60,292.00"/>
    </edge>
    <edge id=":gneJ2_10" function="internal">
        <lane id=":gneJ2_10_0" index="0" speed="10.88" length="8.93" shape="-298.40,286.40 -299.55,293.05 -300.83,294.82"/>
    </edge>
    <edge id=":gneJ2_15" function="internal">
        <lane id=":gneJ2_15_0" index="0" speed="10.88" length="18.21" shape="-300.83,294.82 -303.00,297.80 -308.75,300.65 -316.80,301.60"/>
    </edge>
    <edge id=":gneJ2_11" function="internal">
        <lane id=":gneJ2_11_0" index="0" speed="8.10" length="14.57" shape="-316.80,292.00 -311.55,291.65 -307.80,290.60 -305.55,288.85 -304.80,286.40"/>
    </edge>
    <edge id=":gneJ2_12" function="internal">
        <lane id=":gneJ2_12_0" index="0" speed="13.89" length="27.20" shape="-316.80,292.00 -289.60,292.00"/>
        <lane id=":gneJ2_12_1" index="1" speed="13.89" length="27.20" shape="-316.80,295.20 -289.60,295.20"/>
        <lane id=":gneJ2_12_2" index="2" speed="13.89" length="27.20" shape="-316.80,298.40 -289.60,298.40"/>
    </edge>
    <edge id=":gneJ22_0" function="internal">
        <lane id=":gneJ22_0_0" index="0" speed="10.82" length="33.43" shape="-208.00,13.95 -209.98,11.89 -215.92,11.92 -225.83,14.06 -239.69,18.29"/>
    </edge>
    <edge id=":gneJ22_1" function="internal">
        <lane id=":gneJ22_1_0" index="0" speed="12.90" length="38.53" shape="-208.00,13.95 -210.21,9.94 -216.86,7.09 -227.93,5.37 -243.44,4.80"/>
    </edge>
    <edge id=":gneJ22_2" function="internal">
        <lane id=":gneJ22_2_0" index="0" speed="13.89" length="24.35" shape="-208.00,13.95 -208.00,-10.40"/>
        <lane id=":gneJ22_2_1" index="1" speed="13.89" length="24.35" shape="-204.80,13.95 -204.80,-10.40"/>
        <lane id=":gneJ22_2_2" index="2" speed="13.89" length="24.35" shape="-201.60,13.95 -201.60,-10.40"/>
    </edge>
    <edge id=":gneJ22_5" function="internal">
        <lane id=":gneJ22_5_0" index="0" speed="10.42" length="8.15" shape="-201.60,13.95 -200.65,7.14 -200.00,6.04"/>
    </edge>
    <edge id=":gneJ22_27" function="internal">
        <lane id=":gneJ22_27_0" index="0" speed="10.42" length="16.64" shape="-200.00,6.04 -197.80,2.29 -193.05,-0.63 -186.40,-1.60"/>
    </edge>
    <edge id=":gneJ22_6" function="internal">
        <lane id=":gneJ22_6_0" index="0" speed="7.41" length="12.03" shape="-186.40,4.80 -188.85,5.37 -190.60,7.09 -191.65,9.94 -192.00,13.95"/>
    </edge>
    <edge id=":gneJ22_7" function="internal">
        <lane id=":gneJ22_7_0" index="0" speed="13.89" length="55.57" shape="-186.40,4.80 -197.61,6.46 -213.24,10.36 -228.77,14.85 -239.69,18.29"/>
        <lane id=":gneJ22_7_1" index="1" speed="13.89" length="55.57" shape="-186.40,1.60 -197.77,3.29 -213.74,7.24 -229.62,11.79 -240.70,15.25"/>
    </edge>
    <edge id=":gneJ22_9" function="internal">
        <lane id=":gneJ22_9_0" index="0" speed="13.89" length="57.04" shape="-186.40,1.60 -243.44,1.60"/>
    </edge>
    <edge id=":gneJ22_10" function="internal">